# DIS package for MODFLOW-NWT generated by Flopy 3.3.5
         3        91       182         1         4         2
  0  0  0
CONSTANT    4.351648E+01                           #delr                          
CONSTANT    4.351648E+01                           #delc                          
CONSTANT    2.000000E+02                           #model_top                     
INTERNAL               1 (182E15.6) -1 #botm layer 1                  
   2.000000E+02   2.000000E+02   2.000000E+02   2.000000E+02   2.000000E+02   2.000000E+02   2.000000E+02   2.000000E+02   2.000000E+02   2.000000E+02   2.000000E+02   2.000000E+02   2.000000E+02   2.000000E+02   2.000000E+02   2.000000E+02   2.000000E+02   2.000000E+02   2.000000E+02   2.000000E+02   2.000000E+02   2.000000E+02   2.000000E+02   2.000000E+02   2.000000E+02   2.000000E+02   2.000000E+02   2.000000E+02   2.000000E+02   2.000000E+02   2.000000E+02   2.000000E+02   2.000000E+02   2.000000E+02   2.000000E+02   2.000000E+02   2.000000E+02   2.000000E+02   2.000000E+02   2.000000E+02   2.000000E+02   2.000000E+02   2.000000E+02   2.000000E+02   2.000000E+02   2.000000E+02   2.000000E+02   2.000000E+02   2.000000E+02   2.000000E+02   2.000000E+02   2.000000E+02   2.000000E+02   2.000000E+02   2.000000E+02   2.000000E+02   2.000000E+02   2.000000E+02   2.000000E+02   2.000000E+02   2.000000E+02   2.000000E+02   2.000000E+02   2.000000E+02   2.000000E+02   2.000000E+02   2.000000E+02   2.000000E+02   2.000000E+02   2.000000E+02   2.000000E+02   2.000000E+02   2.000000E+02   2.000000E+02   2.000000E+02   2.000000E+02   2.000000E+02   2.000000E+02   2.000000E+02   2.000000E+02   2.000000E+02   2.000000E+02   2.000000E+02   2.000000E+02   2.000000E+02   2.000000E+02   2.000000E+02   2.000000E+02   2.000000E+02   2.000000E+02   2.000000E+02   2.000000E+02   2.000000E+02   2.000000E+02   2.000000E+02   2.000000E+02   2.000000E+02   2.000000E+02   2.000000E+02   2.000000E+02   2.000000E+02   2.000000E+02   2.000000E+02   2.000000E+02   2.000000E+02   2.000000E+02   2.000000E+02   2.000000E+02   2.000000E+02   2.000000E+02   2.000000E+02   2.000000E+02   2.000000E+02   2.000000E+02   2.000000E+02   2.000000E+02   2.000000E+02   2.000000E+02   2.000000E+02   2.000000E+02   2.000000E+02   2.000000E+02   2.000000E+02   2.000000E+02   2.000000E+02   2.000000E+02   2.000000E+02   2.000000E+02   2.000000E+02   2.000000E+02   2.000000E+02   2.000000E+02   2.000000E+02   2.000000E+02   2.000000E+02   2.000000E+02   2.000000E+02   2.000000E+02   2.000000E+02   2.000000E+02   2.000000E+02   2.000000E+02   2.000000E+02   2.000000E+02   2.000000E+02   2.000000E+02   2.000000E+02   2.000000E+02   2.000000E+02   2.000000E+02   2.000000E+02   2.000000E+02   2.000000E+02   2.000000E+02   2.000000E+02   2.000000E+02   2.000000E+02   2.000000E+02   2.000000E+02   2.000000E+02   2.000000E+02   2.000000E+02   2.000000E+02   2.000000E+02   2.000000E+02   2.000000E+02   2.000000E+02   2.000000E+02   2.000000E+02   2.000000E+02   2.000000E+02   2.000000E+02   2.000000E+02   2.000000E+02   2.000000E+02   2.000000E+02   2.000000E+02   2.000000E+02   2.000000E+02   2.000000E+02   2.000000E+02   2.000000E+02
   2.000000E+02   2.000000E+02   2.000000E+02   2.000000E+02   2.000000E+02   2.000000E+02   2.000000E+02   2.000000E+02   2.000000E+02   2.000000E+02   2.000000E+02   2.000000E+02   2.000000E+02   2.000000E+02   2.000000E+02   2.000000E+02   2.000000E+02   2.000000E+02   2.000000E+02   2.000000E+02   2.000000E+02   2.000000E+02   2.000000E+02   2.000000E+02   2.000000E+02   2.000000E+02   2.000000E+02   2.000000E+02   2.000000E+02   2.000000E+02   2.000000E+02   2.000000E+02   2.000000E+02   2.000000E+02   2.000000E+02   2.000000E+02   2.000000E+02   2.000000E+02   2.000000E+02   2.000000E+02   2.000000E+02   2.000000E+02   2.000000E+02   2.000000E+02   2.000000E+02   2.000000E+02   2.000000E+02   2.000000E+02   2.000000E+02   2.000000E+02   2.000000E+02   2.000000E+02   2.000000E+02   2.000000E+02   2.000000E+02   2.000000E+02   2.000000E+02   2.000000E+02   2.000000E+02   2.000000E+02   2.000000E+02   2.000000E+02   2.000000E+02   2.000000E+02   2.000000E+02   2.000000E+02   2.000000E+02   2.000000E+02   2.000000E+02   2.000000E+02   2.000000E+02   2.000000E+02   2.000000E+02   2.000000E+02   2.000000E+02   2.000000E+02   2.000000E+02   2.000000E+02   2.000000E+02   2.000000E+02   2.000000E+02   2.000000E+02   2.000000E+02   2.000000E+02   2.000000E+02   2.000000E+02   2.000000E+02   2.000000E+02   2.000000E+02   2.000000E+02   2.000000E+02   2.000000E+02   2.000000E+02   2.000000E+02   2.000000E+02   2.000000E+02   2.000000E+02   2.000000E+02   2.000000E+02   2.000000E+02   2.000000E+02   2.000000E+02   2.000000E+02   2.000000E+02   2.000000E+02   2.000000E+02   2.000000E+02   2.000000E+02   2.000000E+02   2.000000E+02   2.000000E+02   2.000000E+02   2.000000E+02   2.000000E+02   2.000000E+02   2.000000E+02   2.000000E+02   2.000000E+02   2.000000E+02   2.000000E+02   2.000000E+02   2.000000E+02   2.000000E+02   2.000000E+02   2.000000E+02   2.000000E+02   2.000000E+02   2.000000E+02   2.000000E+02   2.000000E+02   2.000000E+02   2.000000E+02   2.000000E+02   2.000000E+02   2.000000E+02   2.000000E+02   2.000000E+02   2.000000E+02   2.000000E+02   2.000000E+02   2.000000E+02   2.000000E+02   2.000000E+02   2.000000E+02   2.000000E+02   2.000000E+02   2.000000E+02   2.000000E+02   2.000000E+02   2.000000E+02   2.000000E+02   2.000000E+02   2.000000E+02   2.000000E+02   2.000000E+02   2.000000E+02   2.000000E+02   2.000000E+02   2.000000E+02   2.000000E+02   2.000000E+02   2.000000E+02   2.000000E+02   2.000000E+02   2.000000E+02   2.000000E+02   2.000000E+02   2.000000E+02   2.000000E+02   2.000000E+02   2.000000E+02   2.000000E+02   2.000000E+02   2.000000E+02   2.000000E+02   2.000000E+02   2.000000E+02   2.000000E+02   2.000000E+02   2.000000E+02   2.000000E+02   2.000000E+02
   2.000000E+02   2.000000E+02   2.000000E+02   2.000000E+02   2.000000E+02   2.000000E+02   2.000000E+02   2.000000E+02   2.000000E+02   2.000000E+02   2.000000E+02   2.000000E+02   2.000000E+02   2.000000E+02   2.000000E+02   2.000000E+02   2.000000E+02   2.000000E+02   2.000000E+02   2.000000E+02   2.000000E+02   2.000000E+02   2.000000E+02   2.000000E+02   2.000000E+02   2.000000E+02   2.000000E+02   2.000000E+02   2.000000E+02   2.000000E+02   2.000000E+02   2.000000E+02   2.000000E+02   2.000000E+02   2.000000E+02   2.000000E+02   2.000000E+02   2.000000E+02   2.000000E+02   2.000000E+02   2.000000E+02   2.000000E+02   2.000000E+02   2.000000E+02   2.000000E+02   2.000000E+02   2.000000E+02   2.000000E+02   2.000000E+02   2.000000E+02   2.000000E+02   2.000000E+02   2.000000E+02   2.000000E+02   2.000000E+02   2.000000E+02   2.000000E+02   2.000000E+02   2.000000E+02   2.000000E+02   2.000000E+02   2.000000E+02   2.000000E+02   2.000000E+02   2.000000E+02   2.000000E+02   2.000000E+02   2.000000E+02   2.000000E+02   2.000000E+02   2.000000E+02   2.000000E+02   2.000000E+02   2.000000E+02   2.000000E+02   2.000000E+02   2.000000E+02   2.000000E+02   2.000000E+02   2.000000E+02   2.000000E+02   2.000000E+02   2.000000E+02   2.000000E+02   2.000000E+02   2.000000E+02   2.000000E+02   2.000000E+02   2.000000E+02   2.000000E+02   2.000000E+02   2.000000E+02   2.000000E+02   2.000000E+02   2.000000E+02   2.000000E+02   2.000000E+02   2.000000E+02   2.000000E+02   2.000000E+02   2.000000E+02   2.000000E+02   2.000000E+02   2.000000E+02   2.000000E+02   2.000000E+02   2.000000E+02   2.000000E+02   2.000000E+02   2.000000E+02   2.000000E+02   2.000000E+02   2.000000E+02   2.000000E+02   2.000000E+02   2.000000E+02   2.000000E+02   2.000000E+02   2.000000E+02   2.000000E+02   2.000000E+02   2.000000E+02   2.000000E+02   2.000000E+02   2.000000E+02   2.000000E+02   2.000000E+02   2.000000E+02   2.000000E+02   2.000000E+02   2.000000E+02   2.000000E+02   2.000000E+02   2.000000E+02   2.000000E+02   2.000000E+02   2.000000E+02   2.000000E+02   2.000000E+02   2.000000E+02   2.000000E+02   2.000000E+02   2.000000E+02   2.000000E+02   2.000000E+02   2.000000E+02   2.000000E+02   2.000000E+02   2.000000E+02   2.000000E+02   2.000000E+02   2.000000E+02   2.000000E+02   2.000000E+02   2.000000E+02   2.000000E+02   2.000000E+02   2.000000E+02   2.000000E+02   2.000000E+02   2.000000E+02   2.000000E+02   2.000000E+02   2.000000E+02   2.000000E+02   2.000000E+02   2.000000E+02   2.000000E+02   2.000000E+02   2.000000E+02   2.000000E+02   2.000000E+02   2.000000E+02   2.000000E+02   2.000000E+02   2.000000E+02   2.000000E+02   2.000000E+02   2.000000E+02   2.000000E+02   2.000000E+02   2.000000E+02
   2.000000E+02   2.000000E+02   2.000000E+02   2.000000E+02   2.000000E+02   2.000000E+02   2.000000E+02   2.000000E+02   2.000000E+02   2.000000E+02   2.000000E+02   2.000000E+02   2.000000E+02   2.000000E+02   2.000000E+02   2.000000E+02   2.000000E+02   2.000000E+02   2.000000E+02   2.000000E+02   2.000000E+02   2.000000E+02   2.000000E+02   2.000000E+02   2.000000E+02   2.000000E+02   2.000000E+02   2.000000E+02   2.000000E+02   2.000000E+02   2.000000E+02   2.000000E+02   2.000000E+02   2.000000E+02   2.000000E+02   2.000000E+02   2.000000E+02   2.000000E+02   2.000000E+02   2.000000E+02   2.000000E+02   2.000000E+02   2.000000E+02   2.000000E+02   2.000000E+02   2.000000E+02   2.000000E+02   2.000000E+02   2.000000E+02   2.000000E+02   2.000000E+02   2.000000E+02   2.000000E+02   2.000000E+02   2.000000E+02   2.000000E+02   2.000000E+02   2.000000E+02   2.000000E+02   2.000000E+02   2.000000E+02   2.000000E+02   2.000000E+02   2.000000E+02   2.000000E+02   2.000000E+02   2.000000E+02   2.000000E+02   2.000000E+02   2.000000E+02   2.000000E+02   2.000000E+02   2.000000E+02   2.000000E+02   2.000000E+02   2.000000E+02   2.000000E+02   2.000000E+02   2.000000E+02   2.000000E+02   2.000000E+02   2.000000E+02   2.000000E+02   2.000000E+02   2.000000E+02   2.000000E+02   2.000000E+02   2.000000E+02   2.000000E+02   2.000000E+02   2.000000E+02   2.000000E+02   2.000000E+02   2.000000E+02   2.000000E+02   2.000000E+02   2.000000E+02   2.000000E+02   2.000000E+02   2.000000E+02   2.000000E+02   2.000000E+02   2.000000E+02   2.000000E+02   2.000000E+02   2.000000E+02   2.000000E+02   2.000000E+02   2.000000E+02   2.000000E+02   2.000000E+02   2.000000E+02   2.000000E+02   2.000000E+02   2.000000E+02   2.000000E+02   2.000000E+02   2.000000E+02   2.000000E+02   2.000000E+02   2.000000E+02   2.000000E+02   2.000000E+02   2.000000E+02   2.000000E+02   2.000000E+02   2.000000E+02   2.000000E+02   2.000000E+02   2.000000E+02   2.000000E+02   2.000000E+02   2.000000E+02   2.000000E+02   2.000000E+02   2.000000E+02   2.000000E+02   2.000000E+02   2.000000E+02   2.000000E+02   2.000000E+02   2.000000E+02   2.000000E+02   2.000000E+02   2.000000E+02   2.000000E+02   2.000000E+02   2.000000E+02   2.000000E+02   2.000000E+02   2.000000E+02   2.000000E+02   2.000000E+02   2.000000E+02   2.000000E+02   2.000000E+02   2.000000E+02   2.000000E+02   2.000000E+02   2.000000E+02   2.000000E+02   2.000000E+02   2.000000E+02   2.000000E+02   2.000000E+02   2.000000E+02   2.000000E+02   2.000000E+02   2.000000E+02   2.000000E+02   2.000000E+02   2.000000E+02   2.000000E+02   2.000000E+02   2.000000E+02   2.000000E+02   2.000000E+02   2.000000E+02   2.000000E+02   2.000000E+02   2.000000E+02   2.000000E+02
   2.000000E+02   2.000000E+02   2.000000E+02   2.000000E+02   2.000000E+02   2.000000E+02   2.000000E+02   2.000000E+02   2.000000E+02   2.000000E+02   2.000000E+02   2.000000E+02   2.000000E+02   2.000000E+02   2.000000E+02   2.000000E+02   2.000000E+02   2.000000E+02   2.000000E+02   2.000000E+02   2.000000E+02   2.000000E+02   2.000000E+02   2.000000E+02   2.000000E+02   2.000000E+02   2.000000E+02   2.000000E+02   2.000000E+02   2.000000E+02   2.000000E+02   2.000000E+02   2.000000E+02   2.000000E+02   2.000000E+02   2.000000E+02   2.000000E+02   2.000000E+02   2.000000E+02   2.000000E+02   2.000000E+02   2.000000E+02   2.000000E+02   2.000000E+02   2.000000E+02   2.000000E+02   2.000000E+02   2.000000E+02   2.000000E+02   2.000000E+02   2.000000E+02   2.000000E+02   2.000000E+02   2.000000E+02   2.000000E+02   2.000000E+02   2.000000E+02   2.000000E+02   2.000000E+02   2.000000E+02   2.000000E+02   2.000000E+02   2.000000E+02   2.000000E+02   2.000000E+02   2.000000E+02   2.000000E+02   2.000000E+02   2.000000E+02   2.000000E+02   2.000000E+02   2.000000E+02   2.000000E+02   2.000000E+02   2.000000E+02   2.000000E+02   2.000000E+02   2.000000E+02   2.000000E+02   2.000000E+02   2.000000E+02   2.000000E+02   2.000000E+02   2.000000E+02   2.000000E+02   2.000000E+02   2.000000E+02   2.000000E+02   2.000000E+02   2.000000E+02   2.000000E+02   2.000000E+02   2.000000E+02   2.000000E+02   2.000000E+02   2.000000E+02   2.000000E+02   2.000000E+02   2.000000E+02   2.000000E+02   2.000000E+02   2.000000E+02   2.000000E+02   2.000000E+02   2.000000E+02   2.000000E+02   2.000000E+02   2.000000E+02   2.000000E+02   2.000000E+02   2.000000E+02   2.000000E+02   2.000000E+02   2.000000E+02   2.000000E+02   2.000000E+02   2.000000E+02   2.000000E+02   2.000000E+02   2.000000E+02   2.000000E+02   2.000000E+02   2.000000E+02   2.000000E+02   2.000000E+02   2.000000E+02   2.000000E+02   2.000000E+02   2.000000E+02   2.000000E+02   2.000000E+02   2.000000E+02   2.000000E+02   2.000000E+02   2.000000E+02   2.000000E+02   2.000000E+02   2.000000E+02   2.000000E+02   2.000000E+02   2.000000E+02   2.000000E+02   2.000000E+02   2.000000E+02   2.000000E+02   2.000000E+02   2.000000E+02   2.000000E+02   2.000000E+02   2.000000E+02   2.000000E+02   2.000000E+02   2.000000E+02   2.000000E+02   2.000000E+02   2.000000E+02   2.000000E+02   2.000000E+02   2.000000E+02   2.000000E+02   2.000000E+02   2.000000E+02   2.000000E+02   2.000000E+02   2.000000E+02   2.000000E+02   2.000000E+02   2.000000E+02   2.000000E+02   2.000000E+02   2.000000E+02   2.000000E+02   2.000000E+02   2.000000E+02   2.000000E+02   2.000000E+02   2.000000E+02   2.000000E+02   2.000000E+02   2.000000E+02   2.000000E+02   2.000000E+02
   2.000000E+02   2.000000E+02   2.000000E+02   2.000000E+02   2.000000E+02   2.000000E+02   2.000000E+02   2.000000E+02   2.000000E+02   2.000000E+02   2.000000E+02   2.000000E+02   2.000000E+02   2.000000E+02   2.000000E+02   2.000000E+02   2.000000E+02   2.000000E+02   2.000000E+02   2.000000E+02   2.000000E+02   2.000000E+02   2.000000E+02   2.000000E+02   2.000000E+02   2.000000E+02   2.000000E+02   2.000000E+02   2.000000E+02   2.000000E+02   2.000000E+02   2.000000E+02   2.000000E+02   2.000000E+02   2.000000E+02   2.000000E+02   2.000000E+02   2.000000E+02   2.000000E+02   2.000000E+02   2.000000E+02   2.000000E+02   2.000000E+02   2.000000E+02   2.000000E+02   2.000000E+02   2.000000E+02   2.000000E+02   2.000000E+02   2.000000E+02   2.000000E+02   2.000000E+02   2.000000E+02   2.000000E+02   2.000000E+02   2.000000E+02   2.000000E+02   2.000000E+02   2.000000E+02   2.000000E+02   2.000000E+02   2.000000E+02   2.000000E+02   2.000000E+02   2.000000E+02   2.000000E+02   2.000000E+02   2.000000E+02   2.000000E+02   2.000000E+02   2.000000E+02   2.000000E+02   2.000000E+02   2.000000E+02   2.000000E+02   2.000000E+02   2.000000E+02   2.000000E+02   2.000000E+02   2.000000E+02   2.000000E+02   2.000000E+02   2.000000E+02   2.000000E+02   2.000000E+02   2.000000E+02   2.000000E+02   2.000000E+02   2.000000E+02   2.000000E+02   2.000000E+02   2.000000E+02   2.000000E+02   2.000000E+02   2.000000E+02   2.000000E+02   2.000000E+02   2.000000E+02   2.000000E+02   2.000000E+02   2.000000E+02   2.000000E+02   2.000000E+02   2.000000E+02   2.000000E+02   2.000000E+02   2.000000E+02   2.000000E+02   2.000000E+02   2.000000E+02   2.000000E+02   2.000000E+02   2.000000E+02   2.000000E+02   2.000000E+02   2.000000E+02   2.000000E+02   2.000000E+02   2.000000E+02   2.000000E+02   2.000000E+02   2.000000E+02   2.000000E+02   2.000000E+02   2.000000E+02   2.000000E+02   2.000000E+02   2.000000E+02   2.000000E+02   2.000000E+02   2.000000E+02   2.000000E+02   2.000000E+02   2.000000E+02   2.000000E+02   2.000000E+02   2.000000E+02   2.000000E+02   2.000000E+02   2.000000E+02   2.000000E+02   2.000000E+02   2.000000E+02   2.000000E+02   2.000000E+02   2.000000E+02   2.000000E+02   2.000000E+02   2.000000E+02   2.000000E+02   2.000000E+02   2.000000E+02   2.000000E+02   2.000000E+02   2.000000E+02   2.000000E+02   2.000000E+02   2.000000E+02   2.000000E+02   2.000000E+02   2.000000E+02   2.000000E+02   2.000000E+02   2.000000E+02   2.000000E+02   2.000000E+02   2.000000E+02   2.000000E+02   2.000000E+02   2.000000E+02   2.000000E+02   2.000000E+02   2.000000E+02   2.000000E+02   2.000000E+02   2.000000E+02   2.000000E+02   2.000000E+02   2.000000E+02   2.000000E+02   2.000000E+02   2.000000E+02
   2.000000E+02   2.000000E+02   2.000000E+02   2.000000E+02   2.000000E+02   2.000000E+02   2.000000E+02   2.000000E+02   2.000000E+02   2.000000E+02   2.000000E+02   2.000000E+02   2.000000E+02   2.000000E+02   2.000000E+02   2.000000E+02   2.000000E+02   2.000000E+02   2.000000E+02   2.000000E+02   2.000000E+02   2.000000E+02   2.000000E+02   2.000000E+02   2.000000E+02   2.000000E+02   2.000000E+02   2.000000E+02   2.000000E+02   2.000000E+02   2.000000E+02   2.000000E+02   2.000000E+02   2.000000E+02   2.000000E+02   2.000000E+02   2.000000E+02   2.000000E+02   2.000000E+02   2.000000E+02   2.000000E+02   2.000000E+02   2.000000E+02   2.000000E+02   2.000000E+02   2.000000E+02   2.000000E+02   2.000000E+02   2.000000E+02   2.000000E+02   2.000000E+02   2.000000E+02   2.000000E+02   2.000000E+02   2.000000E+02   2.000000E+02   2.000000E+02   2.000000E+02   2.000000E+02   2.000000E+02   2.000000E+02   2.000000E+02   2.000000E+02   2.000000E+02   2.000000E+02   2.000000E+02   2.000000E+02   2.000000E+02   2.000000E+02   2.000000E+02   2.000000E+02   2.000000E+02   2.000000E+02   2.000000E+02   2.000000E+02   2.000000E+02   2.000000E+02   2.000000E+02   2.000000E+02   2.000000E+02   2.000000E+02   2.000000E+02   2.000000E+02   2.000000E+02   2.000000E+02   2.000000E+02   2.000000E+02   2.000000E+02   2.000000E+02   2.000000E+02   2.000000E+02   2.000000E+02   2.000000E+02   2.000000E+02   2.000000E+02   2.000000E+02   2.000000E+02   2.000000E+02   2.000000E+02   2.000000E+02   2.000000E+02   2.000000E+02   2.000000E+02   2.000000E+02   2.000000E+02   2.000000E+02   2.000000E+02   2.000000E+02   2.000000E+02   2.000000E+02   2.000000E+02   2.000000E+02   2.000000E+02   2.000000E+02   2.000000E+02   2.000000E+02   2.000000E+02   2.000000E+02   2.000000E+02   2.000000E+02   2.000000E+02   2.000000E+02   2.000000E+02   2.000000E+02   2.000000E+02   2.000000E+02   2.000000E+02   2.000000E+02   2.000000E+02   2.000000E+02   2.000000E+02   2.000000E+02   2.000000E+02   2.000000E+02   2.000000E+02   2.000000E+02   2.000000E+02   2.000000E+02   2.000000E+02   2.000000E+02   2.000000E+02   2.000000E+02   2.000000E+02   2.000000E+02   2.000000E+02   2.000000E+02   2.000000E+02   2.000000E+02   2.000000E+02   2.000000E+02   2.000000E+02   2.000000E+02   2.000000E+02   2.000000E+02   2.000000E+02   2.000000E+02   2.000000E+02   2.000000E+02   2.000000E+02   2.000000E+02   2.000000E+02   2.000000E+02   2.000000E+02   2.000000E+02   2.000000E+02   2.000000E+02   2.000000E+02   2.000000E+02   2.000000E+02   2.000000E+02   2.000000E+02   2.000000E+02   2.000000E+02   2.000000E+02   2.000000E+02   2.000000E+02   2.000000E+02   2.000000E+02   2.000000E+02   2.000000E+02   2.000000E+02   2.000000E+02
   2.000000E+02   2.000000E+02   2.000000E+02   2.000000E+02   2.000000E+02   2.000000E+02   2.000000E+02   2.000000E+02   2.000000E+02   2.000000E+02   2.000000E+02   2.000000E+02   2.000000E+02   2.000000E+02   2.000000E+02   2.000000E+02   2.000000E+02   2.000000E+02   2.000000E+02   2.000000E+02   2.000000E+02   2.000000E+02   2.000000E+02   2.000000E+02   2.000000E+02   2.000000E+02   2.000000E+02   2.000000E+02   2.000000E+02   2.000000E+02   2.000000E+02   2.000000E+02   2.000000E+02   2.000000E+02   2.000000E+02   2.000000E+02   2.000000E+02   2.000000E+02   2.000000E+02   2.000000E+02   2.000000E+02   2.000000E+02   2.000000E+02   2.000000E+02   2.000000E+02   2.000000E+02   2.000000E+02   2.000000E+02   2.000000E+02   2.000000E+02   2.000000E+02   2.000000E+02   2.000000E+02   2.000000E+02   2.000000E+02   2.000000E+02   2.000000E+02   2.000000E+02   2.000000E+02   2.000000E+02   2.000000E+02   2.000000E+02   2.000000E+02   2.000000E+02   2.000000E+02   2.000000E+02   2.000000E+02   2.000000E+02   2.000000E+02   2.000000E+02   2.000000E+02   2.000000E+02   2.000000E+02   2.000000E+02   2.000000E+02   2.000000E+02   2.000000E+02   2.000000E+02   2.000000E+02   2.000000E+02   2.000000E+02   2.000000E+02   2.000000E+02   2.000000E+02   2.000000E+02   2.000000E+02   2.000000E+02   2.000000E+02   2.000000E+02   2.000000E+02   2.000000E+02   2.000000E+02   2.000000E+02   2.000000E+02   2.000000E+02   2.000000E+02   2.000000E+02   2.000000E+02   2.000000E+02   2.000000E+02   2.000000E+02   2.000000E+02   2.000000E+02   2.000000E+02   2.000000E+02   2.000000E+02   2.000000E+02   2.000000E+02   2.000000E+02   2.000000E+02   2.000000E+02   2.000000E+02   2.000000E+02   2.000000E+02   2.000000E+02   2.000000E+02   2.000000E+02   2.000000E+02   2.000000E+02   2.000000E+02   2.000000E+02   2.000000E+02   2.000000E+02   2.000000E+02   2.000000E+02   2.000000E+02   2.000000E+02   2.000000E+02   2.000000E+02   2.000000E+02   2.000000E+02   2.000000E+02   2.000000E+02   2.000000E+02   2.000000E+02   2.000000E+02   2.000000E+02   2.000000E+02   2.000000E+02   2.000000E+02   2.000000E+02   2.000000E+02   2.000000E+02   2.000000E+02   2.000000E+02   2.000000E+02   2.000000E+02   2.000000E+02   2.000000E+02   2.000000E+02   2.000000E+02   2.000000E+02   2.000000E+02   2.000000E+02   2.000000E+02   2.000000E+02   2.000000E+02   2.000000E+02   2.000000E+02   2.000000E+02   2.000000E+02   2.000000E+02   2.000000E+02   2.000000E+02   2.000000E+02   2.000000E+02   2.000000E+02   2.000000E+02   2.000000E+02   2.000000E+02   2.000000E+02   2.000000E+02   2.000000E+02   2.000000E+02   2.000000E+02   2.000000E+02   2.000000E+02   2.000000E+02   2.000000E+02   2.000000E+02   2.000000E+02   2.000000E+02
   2.000000E+02   2.000000E+02   2.000000E+02   2.000000E+02   2.000000E+02   2.000000E+02   2.000000E+02   2.000000E+02   2.000000E+02   2.000000E+02   2.000000E+02   2.000000E+02   2.000000E+02   2.000000E+02   2.000000E+02   2.000000E+02   2.000000E+02   2.000000E+02   2.000000E+02   2.000000E+02   2.000000E+02   2.000000E+02   2.000000E+02   2.000000E+02   2.000000E+02   2.000000E+02   2.000000E+02   2.000000E+02   2.000000E+02   2.000000E+02   2.000000E+02   2.000000E+02   2.000000E+02   2.000000E+02   2.000000E+02   2.000000E+02   2.000000E+02   2.000000E+02   2.000000E+02   2.000000E+02   2.000000E+02   2.000000E+02   2.000000E+02   2.000000E+02   2.000000E+02   2.000000E+02   2.000000E+02   2.000000E+02   2.000000E+02   2.000000E+02   2.000000E+02   2.000000E+02   2.000000E+02   2.000000E+02   2.000000E+02   2.000000E+02   2.000000E+02   2.000000E+02   2.000000E+02   2.000000E+02   2.000000E+02   2.000000E+02   2.000000E+02   2.000000E+02   2.000000E+02   2.000000E+02   2.000000E+02   2.000000E+02   2.000000E+02   2.000000E+02   2.000000E+02   2.000000E+02   2.000000E+02   2.000000E+02   2.000000E+02   2.000000E+02   2.000000E+02   2.000000E+02   2.000000E+02   2.000000E+02   2.000000E+02   2.000000E+02   2.000000E+02   2.000000E+02   2.000000E+02   2.000000E+02   2.000000E+02   2.000000E+02   2.000000E+02   2.000000E+02   2.000000E+02   2.000000E+02   2.000000E+02   2.000000E+02   2.000000E+02   2.000000E+02   2.000000E+02   2.000000E+02   2.000000E+02   2.000000E+02   2.000000E+02   2.000000E+02   2.000000E+02   2.000000E+02   2.000000E+02   2.000000E+02   2.000000E+02   2.000000E+02   2.000000E+02   2.000000E+02   2.000000E+02   2.000000E+02   2.000000E+02   2.000000E+02   2.000000E+02   2.000000E+02   2.000000E+02   2.000000E+02   2.000000E+02   2.000000E+02   2.000000E+02   2.000000E+02   2.000000E+02   2.000000E+02   2.000000E+02   2.000000E+02   2.000000E+02   2.000000E+02   2.000000E+02   2.000000E+02   2.000000E+02   2.000000E+02   2.000000E+02   2.000000E+02   2.000000E+02   2.000000E+02   2.000000E+02   2.000000E+02   2.000000E+02   2.000000E+02   2.000000E+02   2.000000E+02   2.000000E+02   2.000000E+02   2.000000E+02   2.000000E+02   2.000000E+02   2.000000E+02   2.000000E+02   2.000000E+02   2.000000E+02   2.000000E+02   2.000000E+02   2.000000E+02   2.000000E+02   2.000000E+02   2.000000E+02   2.000000E+02   2.000000E+02   2.000000E+02   2.000000E+02   2.000000E+02   2.000000E+02   2.000000E+02   2.000000E+02   2.000000E+02   2.000000E+02   2.000000E+02   2.000000E+02   2.000000E+02   2.000000E+02   2.000000E+02   2.000000E+02   2.000000E+02   2.000000E+02   2.000000E+02   2.000000E+02   2.000000E+02   2.000000E+02   2.000000E+02   2.000000E+02   2.000000E+02
   2.000000E+02   2.000000E+02   2.000000E+02   2.000000E+02   2.000000E+02   2.000000E+02   2.000000E+02   2.000000E+02   2.000000E+02   2.000000E+02   2.000000E+02   2.000000E+02   2.000000E+02   2.000000E+02   2.000000E+02   2.000000E+02   2.000000E+02   2.000000E+02   2.000000E+02   2.000000E+02   2.000000E+02   2.000000E+02   2.000000E+02   2.000000E+02   2.000000E+02   2.000000E+02   2.000000E+02   2.000000E+02   2.000000E+02   2.000000E+02   2.000000E+02   2.000000E+02   2.000000E+02   2.000000E+02   2.000000E+02   2.000000E+02   2.000000E+02   2.000000E+02   2.000000E+02   2.000000E+02   2.000000E+02   2.000000E+02   2.000000E+02   2.000000E+02   2.000000E+02   2.000000E+02   2.000000E+02   2.000000E+02   2.000000E+02   2.000000E+02   2.000000E+02   2.000000E+02   2.000000E+02   2.000000E+02   2.000000E+02   2.000000E+02   2.000000E+02   2.000000E+02   2.000000E+02   2.000000E+02   2.000000E+02   2.000000E+02   2.000000E+02   2.000000E+02   2.000000E+02   2.000000E+02   2.000000E+02   2.000000E+02   2.000000E+02   2.000000E+02   2.000000E+02   2.000000E+02   2.000000E+02   2.000000E+02   2.000000E+02   2.000000E+02   2.000000E+02   2.000000E+02   2.000000E+02   2.000000E+02   2.000000E+02   2.000000E+02   2.000000E+02   2.000000E+02   2.000000E+02   2.000000E+02   2.000000E+02   2.000000E+02   2.000000E+02   2.000000E+02   2.000000E+02   2.000000E+02   2.000000E+02   2.000000E+02   2.000000E+02   2.000000E+02   2.000000E+02   2.000000E+02   2.000000E+02   2.000000E+02   2.000000E+02   2.000000E+02   2.000000E+02   2.000000E+02   2.000000E+02   2.000000E+02   2.000000E+02   2.000000E+02   2.000000E+02   2.000000E+02   2.000000E+02   2.000000E+02   2.000000E+02   2.000000E+02   2.000000E+02   2.000000E+02   2.000000E+02   2.000000E+02   2.000000E+02   2.000000E+02   2.000000E+02   2.000000E+02   2.000000E+02   2.000000E+02   2.000000E+02   2.000000E+02   2.000000E+02   2.000000E+02   2.000000E+02   2.000000E+02   2.000000E+02   2.000000E+02   2.000000E+02   2.000000E+02   2.000000E+02   2.000000E+02   2.000000E+02   2.000000E+02   2.000000E+02   2.000000E+02   2.000000E+02   2.000000E+02   2.000000E+02   2.000000E+02   2.000000E+02   2.000000E+02   2.000000E+02   2.000000E+02   2.000000E+02   2.000000E+02   2.000000E+02   2.000000E+02   2.000000E+02   2.000000E+02   2.000000E+02   2.000000E+02   2.000000E+02   2.000000E+02   2.000000E+02   2.000000E+02   2.000000E+02   2.000000E+02   2.000000E+02   2.000000E+02   2.000000E+02   2.000000E+02   2.000000E+02   2.000000E+02   2.000000E+02   2.000000E+02   2.000000E+02   2.000000E+02   2.000000E+02   2.000000E+02   2.000000E+02   2.000000E+02   2.000000E+02   2.000000E+02   2.000000E+02   2.000000E+02   2.000000E+02   2.000000E+02