# Name file for MT3DMS, generated by Flopy version 3.3.5.
LIST              16  incised_mt3.list
FTL               10  mt3d_link.ftl 
BTN               31  incised_mt3.btn
ADV               32  incised_mt3.adv
GCG               35  incised_mt3.gcg
DSP               33  incised_mt3.dsp
SSM               34  incised_mt3.ssm
