# UPW package for MODFLOW-NWT generated by Flopy 3.3.5
        53    -1E+03         0         1 
         1         1         1
         0         0         0
   1.000000E+00   1.000000E+00   1.000000E+00
         0         0         0
         0         0         0
INTERNAL               1 (182E15.6) -1 #hk layer 1                    
   2.830000E+00   2.830000E+00   2.830000E+00   2.830000E+00   2.830000E+00   2.830000E+00   2.830000E+00   2.830000E+00   2.830000E+00   2.830000E+00   2.830000E+00   2.830000E+00   2.830000E+00   2.830000E+00   2.830000E+00   2.830000E+00   2.830000E+00   2.830000E+00   2.830000E+00   2.830000E+00   2.830000E+00   2.830000E+00   2.830000E+00   2.830000E+00   2.830000E+00   2.830000E+00   2.830000E+00   2.830000E+00   2.830000E+00   2.830000E+00   2.830000E+00   2.830000E+00   2.830000E+00   2.830000E+00   2.830000E+00   2.830000E+00   2.830000E+00   2.830000E+00   2.830000E+00   2.830000E+00   2.830000E+00   2.830000E+00   2.830000E+00   2.830000E+00   2.830000E+00   2.830000E+00   2.830000E+00   2.830000E+00   2.830000E+00   2.830000E+00   2.830000E+00   2.830000E+00   2.830000E+00   2.830000E+00   2.830000E+00   2.830000E+00   2.830000E+00   2.830000E+00   2.830000E+00   2.830000E+00   2.830000E+00   2.830000E+00   2.830000E+00   2.830000E+00   2.830000E+00   2.830000E+00   2.830000E+00   2.830000E+00   2.830000E+00   2.830000E+00   2.830000E+00   2.830000E+00   2.830000E+00   2.830000E+00   2.830000E+00   2.830000E+00   2.830000E+00   2.830000E+00   2.830000E+00   2.830000E+00   2.830000E+00   2.830000E+00   2.830000E+00   2.830000E+00   2.830000E+00   2.830000E+00   2.830000E+00   2.830000E+00   2.830000E+00   2.830000E+00   2.830000E+00   2.830000E+00   2.830000E+00   2.830000E+00   2.830000E+00   2.830000E+00   2.830000E+00   2.830000E+00   2.830000E+00   2.830000E+00   2.830000E+00   2.830000E+00   2.830000E+00   2.830000E+00   2.830000E+00   2.830000E+00   2.830000E+00   2.830000E+00   2.830000E+00   2.830000E+00   2.830000E+00   2.830000E+00   2.830000E+00   2.830000E+00   2.830000E+00   2.830000E+00   2.830000E+00   2.830000E+00   2.830000E+00   2.830000E+00   2.830000E+00   2.830000E+00   2.830000E+00   2.830000E+00   2.830000E+00   2.830000E+00   2.830000E+00   2.830000E+00   2.830000E+00   2.830000E+00   2.830000E+00   2.830000E+00   2.830000E+00   2.830000E+00   2.830000E+00   2.830000E+00   2.830000E+00   2.830000E+00   2.830000E+00   2.830000E+00   2.830000E+00   2.830000E+00   2.830000E+00   2.830000E+00   2.830000E+00   2.830000E+00   2.830000E+00   2.830000E+00   2.830000E+00   2.830000E+00   2.830000E+00   2.830000E+00   2.830000E+00   2.830000E+00   2.830000E+00   2.830000E+00   2.830000E+00   2.830000E+00   2.830000E+00   2.830000E+00   2.830000E+00   2.830000E+00   2.830000E+00   2.830000E+00   2.830000E+00   2.830000E+00   2.830000E+00   2.830000E+00   2.830000E+00   2.830000E+00   2.830000E+00   2.830000E+00   2.830000E+00   2.830000E+00   2.830000E+00   2.830000E+00   2.830000E+00   2.830000E+00   2.830000E+00   2.830000E+00   2.830000E+00   2.830000E+00
   2.830000E+00   2.830000E+00   2.830000E+00   2.830000E+00   2.830000E+00   2.830000E+00   2.830000E+00   2.830000E+00   2.830000E+00   2.830000E+00   2.830000E+00   2.830000E+00   2.830000E+00   2.830000E+00   2.830000E+00   2.830000E+00   2.830000E+00   2.830000E+00   2.830000E+00   2.830000E+00   2.830000E+00   2.830000E+00   2.830000E+00   2.830000E+00   2.830000E+00   2.830000E+00   2.830000E+00   2.830000E+00   2.830000E+00   2.830000E+00   2.830000E+00   2.830000E+00   2.830000E+00   2.830000E+00   2.830000E+00   2.830000E+00   2.830000E+00   2.830000E+00   2.830000E+00   2.830000E+00   2.830000E+00   2.830000E+00   2.830000E+00   2.830000E+00   2.830000E+00   2.830000E+00   2.830000E+00   2.830000E+00   2.830000E+00   2.830000E+00   2.830000E+00   2.830000E+00   2.830000E+00   2.830000E+00   2.830000E+00   2.830000E+00   2.830000E+00   2.830000E+00   2.830000E+00   2.830000E+00   2.830000E+00   2.830000E+00   2.830000E+00   2.830000E+00   2.830000E+00   2.830000E+00   2.830000E+00   2.830000E+00   2.830000E+00   2.830000E+00   2.830000E+00   2.830000E+00   2.830000E+00   2.830000E+00   2.830000E+00   2.830000E+00   2.830000E+00   2.830000E+00   2.830000E+00   2.830000E+00   2.830000E+00   2.830000E+00   2.830000E+00   2.830000E+00   2.830000E+00   2.830000E+00   2.830000E+00   2.830000E+00   2.830000E+00   2.830000E+00   2.830000E+00   2.830000E+00   2.830000E+00   2.830000E+00   2.830000E+00   2.830000E+00   2.830000E+00   2.830000E+00   2.830000E+00   2.830000E+00   2.830000E+00   2.830000E+00   2.830000E+00   2.830000E+00   2.830000E+00   2.830000E+00   2.830000E+00   2.830000E+00   2.830000E+00   2.830000E+00   2.830000E+00   2.830000E+00   2.830000E+00   2.830000E+00   2.830000E+00   2.830000E+00   2.830000E+00   2.830000E+00   2.830000E+00   2.830000E+00   2.830000E+00   2.830000E+00   2.830000E+00   2.830000E+00   2.830000E+00   2.830000E+00   2.830000E+00   2.830000E+00   2.830000E+00   2.830000E+00   2.830000E+00   2.830000E+00   2.830000E+00   2.830000E+00   2.830000E+00   2.830000E+00   2.830000E+00   2.830000E+00   2.830000E+00   2.830000E+00   2.830000E+00   2.830000E+00   2.830000E+00   2.830000E+00   2.830000E+00   2.830000E+00   2.830000E+00   2.830000E+00   2.830000E+00   2.830000E+00   2.830000E+00   2.830000E+00   2.830000E+00   2.830000E+00   2.830000E+00   2.830000E+00   2.830000E+00   2.830000E+00   2.830000E+00   2.830000E+00   2.830000E+00   2.830000E+00   2.830000E+00   2.830000E+00   2.830000E+00   2.830000E+00   2.830000E+00   2.830000E+00   2.830000E+00   2.830000E+00   2.830000E+00   2.830000E+00   2.830000E+00   2.830000E+00   2.830000E+00   2.830000E+00   2.830000E+00   2.830000E+00   2.830000E+00   2.830000E+00   2.830000E+00   2.830000E+00
   2.830000E+00   2.830000E+00   2.830000E+00   2.830000E+00   2.830000E+00   2.830000E+00   2.830000E+00   2.830000E+00   2.830000E+00   2.830000E+00   2.830000E+00   2.830000E+00   2.830000E+00   2.830000E+00   2.830000E+00   2.830000E+00   2.830000E+00   2.830000E+00   2.830000E+00   2.830000E+00   2.830000E+00   2.830000E+00   2.830000E+00   2.830000E+00   2.830000E+00   2.830000E+00   2.830000E+00   2.830000E+00   2.830000E+00   2.830000E+00   2.830000E+00   2.830000E+00   2.830000E+00   2.830000E+00   2.830000E+00   2.830000E+00   2.830000E+00   2.830000E+00   2.830000E+00   2.830000E+00   2.830000E+00   2.830000E+00   2.830000E+00   2.830000E+00   2.830000E+00   2.830000E+00   2.830000E+00   2.830000E+00   2.830000E+00   2.830000E+00   2.830000E+00   2.830000E+00   2.830000E+00   2.830000E+00   2.830000E+00   2.830000E+00   2.830000E+00   2.830000E+00   2.830000E+00   2.830000E+00   2.830000E+00   2.830000E+00   2.830000E+00   2.830000E+00   2.830000E+00   2.830000E+00   2.830000E+00   2.830000E+00   2.830000E+00   2.830000E+00   2.830000E+00   2.830000E+00   2.830000E+00   2.830000E+00   2.830000E+00   2.830000E+00   2.830000E+00   2.830000E+00   2.830000E+00   2.830000E+00   2.830000E+00   2.830000E+00   2.830000E+00   2.830000E+00   2.830000E+00   2.830000E+00   2.830000E+00   2.830000E+00   2.830000E+00   2.830000E+00   2.830000E+00   2.830000E+00   2.830000E+00   2.830000E+00   2.830000E+00   2.830000E+00   2.830000E+00   2.830000E+00   2.830000E+00   2.830000E+00   2.830000E+00   2.830000E+00   2.830000E+00   2.830000E+00   2.830000E+00   2.830000E+00   2.830000E+00   2.830000E+00   2.830000E+00   2.830000E+00   2.830000E+00   2.830000E+00   2.830000E+00   2.830000E+00   2.830000E+00   2.830000E+00   2.830000E+00   2.830000E+00   2.830000E+00   2.830000E+00   2.830000E+00   2.830000E+00   2.830000E+00   2.830000E+00   2.830000E+00   2.830000E+00   2.830000E+00   2.830000E+00   2.830000E+00   2.830000E+00   2.830000E+00   2.830000E+00   2.830000E+00   2.830000E+00   2.830000E+00   2.830000E+00   2.830000E+00   2.830000E+00   2.830000E+00   2.830000E+00   2.830000E+00   2.830000E+00   2.830000E+00   2.830000E+00   2.830000E+00   2.830000E+00   2.830000E+00   2.830000E+00   2.830000E+00   2.830000E+00   2.830000E+00   2.830000E+00   2.830000E+00   2.830000E+00   2.830000E+00   2.830000E+00   2.830000E+00   2.830000E+00   2.830000E+00   2.830000E+00   2.830000E+00   2.830000E+00   2.830000E+00   2.830000E+00   2.830000E+00   2.830000E+00   2.830000E+00   2.830000E+00   2.830000E+00   2.830000E+00   2.830000E+00   2.830000E+00   2.830000E+00   2.830000E+00   2.830000E+00   2.830000E+00   2.830000E+00   2.830000E+00   2.830000E+00   2.830000E+00   2.830000E+00   2.830000E+00
   2.830000E+00   2.830000E+00   2.830000E+00   2.830000E+00   2.830000E+00   2.830000E+00   2.830000E+00   2.830000E+00   2.830000E+00   2.830000E+00   2.830000E+00   2.830000E+00   2.830000E+00   2.830000E+00   2.830000E+00   2.830000E+00   2.830000E+00   2.830000E+00   2.830000E+00   2.830000E+00   2.830000E+00   2.830000E+00   2.830000E+00   2.830000E+00   2.830000E+00   2.830000E+00   2.830000E+00   2.830000E+00   2.830000E+00   2.830000E+00   2.830000E+00   2.830000E+00   2.830000E+00   2.830000E+00   2.830000E+00   2.830000E+00   2.830000E+00   2.830000E+00   2.830000E+00   2.830000E+00   2.830000E+00   2.830000E+00   2.830000E+00   2.830000E+00   2.830000E+00   2.830000E+00   2.830000E+00   2.830000E+00   2.830000E+00   2.830000E+00   2.830000E+00   2.830000E+00   2.830000E+00   2.830000E+00   2.830000E+00   2.830000E+00   2.830000E+00   2.830000E+00   2.830000E+00   2.830000E+00   2.830000E+00   2.830000E+00   2.830000E+00   2.830000E+00   2.830000E+00   2.830000E+00   2.830000E+00   2.830000E+00   2.830000E+00   2.830000E+00   2.830000E+00   2.830000E+00   2.830000E+00   2.830000E+00   2.830000E+00   2.830000E+00   2.830000E+00   2.830000E+00   2.830000E+00   2.830000E+00   2.830000E+00   2.830000E+00   2.830000E+00   2.830000E+00   2.830000E+00   2.830000E+00   2.830000E+00   2.830000E+00   2.830000E+00   2.830000E+00   2.830000E+00   2.830000E+00   2.830000E+00   2.830000E+00   2.830000E+00   2.830000E+00   2.830000E+00   2.830000E+00   2.830000E+00   2.830000E+00   2.830000E+00   2.830000E+00   2.830000E+00   2.830000E+00   2.830000E+00   2.830000E+00   2.830000E+00   2.830000E+00   2.830000E+00   2.830000E+00   2.830000E+00   2.830000E+00   2.830000E+00   2.830000E+00   2.830000E+00   2.830000E+00   2.830000E+00   2.830000E+00   2.830000E+00   2.830000E+00   2.830000E+00   2.830000E+00   2.830000E+00   2.830000E+00   2.830000E+00   2.830000E+00   2.830000E+00   2.830000E+00   2.830000E+00   2.830000E+00   2.830000E+00   2.830000E+00   2.830000E+00   2.830000E+00   2.830000E+00   2.830000E+00   2.830000E+00   2.830000E+00   2.830000E+00   2.830000E+00   2.830000E+00   2.830000E+00   2.830000E+00   2.830000E+00   2.830000E+00   2.830000E+00   2.830000E+00   2.830000E+00   2.830000E+00   2.830000E+00   2.830000E+00   2.830000E+00   2.830000E+00   2.830000E+00   2.830000E+00   2.830000E+00   2.830000E+00   2.830000E+00   2.830000E+00   2.830000E+00   2.830000E+00   2.830000E+00   2.830000E+00   2.830000E+00   2.830000E+00   2.830000E+00   2.830000E+00   2.830000E+00   2.830000E+00   2.830000E+00   2.830000E+00   2.830000E+00   2.830000E+00   2.830000E+00   2.830000E+00   2.830000E+00   2.830000E+00   2.830000E+00   2.830000E+00   2.830000E+00   2.830000E+00   2.830000E+00
   2.830000E+00   2.830000E+00   2.830000E+00   2.830000E+00   2.830000E+00   2.830000E+00   2.830000E+00   2.830000E+00   2.830000E+00   2.830000E+00   2.830000E+00   2.830000E+00   2.830000E+00   2.830000E+00   2.830000E+00   2.830000E+00   2.830000E+00   2.830000E+00   2.830000E+00   2.830000E+00   2.830000E+00   2.830000E+00   2.830000E+00   2.830000E+00   2.830000E+00   2.830000E+00   2.830000E+00   2.830000E+00   2.830000E+00   2.830000E+00   2.830000E+00   2.830000E+00   2.830000E+00   2.830000E+00   2.830000E+00   2.830000E+00   2.830000E+00   2.830000E+00   2.830000E+00   2.830000E+00   2.830000E+00   2.830000E+00   2.830000E+00   2.830000E+00   2.830000E+00   2.830000E+00   2.830000E+00   2.830000E+00   2.830000E+00   2.830000E+00   2.830000E+00   2.830000E+00   2.830000E+00   2.830000E+00   2.830000E+00   2.830000E+00   2.830000E+00   2.830000E+00   2.830000E+00   2.830000E+00   2.830000E+00   2.830000E+00   2.830000E+00   2.830000E+00   2.830000E+00   2.830000E+00   2.830000E+00   2.830000E+00   2.830000E+00   2.830000E+00   2.830000E+00   2.830000E+00   2.830000E+00   2.830000E+00   2.830000E+00   2.830000E+00   2.830000E+00   2.830000E+00   2.830000E+00   2.830000E+00   2.830000E+00   2.830000E+00   2.830000E+00   2.830000E+00   2.830000E+00   2.830000E+00   2.830000E+00   2.830000E+00   2.830000E+00   2.830000E+00   2.830000E+00   2.830000E+00   2.830000E+00   2.830000E+00   2.830000E+00   2.830000E+00   2.830000E+00   2.830000E+00   2.830000E+00   2.830000E+00   2.830000E+00   2.830000E+00   2.830000E+00   2.830000E+00   2.830000E+00   2.830000E+00   2.830000E+00   2.830000E+00   2.830000E+00   2.830000E+00   2.830000E+00   2.830000E+00   2.830000E+00   2.830000E+00   2.830000E+00   2.830000E+00   2.830000E+00   2.830000E+00   2.830000E+00   2.830000E+00   2.830000E+00   2.830000E+00   2.830000E+00   2.830000E+00   2.830000E+00   2.830000E+00   2.830000E+00   2.830000E+00   2.830000E+00   2.830000E+00   2.830000E+00   2.830000E+00   2.830000E+00   2.830000E+00   2.830000E+00   2.830000E+00   2.830000E+00   2.830000E+00   2.830000E+00   2.830000E+00   2.830000E+00   2.830000E+00   2.830000E+00   2.830000E+00   2.830000E+00   2.830000E+00   2.830000E+00   2.830000E+00   2.830000E+00   2.830000E+00   2.830000E+00   2.830000E+00   2.830000E+00   2.830000E+00   2.830000E+00   2.830000E+00   2.830000E+00   2.830000E+00   2.830000E+00   2.830000E+00   2.830000E+00   2.830000E+00   2.830000E+00   2.830000E+00   2.830000E+00   2.830000E+00   2.830000E+00   2.830000E+00   2.830000E+00   2.830000E+00   2.830000E+00   2.830000E+00   2.830000E+00   2.830000E+00   2.830000E+00   2.830000E+00   2.830000E+00   2.830000E+00   2.830000E+00   2.830000E+00   2.830000E+00   2.830000E+00
   2.830000E+00   2.830000E+00   2.830000E+00   2.830000E+00   2.830000E+00   2.830000E+00   2.830000E+00   2.830000E+00   2.830000E+00   2.830000E+00   2.830000E+00   2.830000E+00   2.830000E+00   2.830000E+00   2.830000E+00   2.830000E+00   2.830000E+00   2.830000E+00   2.830000E+00   2.830000E+00   2.830000E+00   2.830000E+00   2.830000E+00   2.830000E+00   2.830000E+00   2.830000E+00   2.830000E+00   2.830000E+00   2.830000E+00   2.830000E+00   2.830000E+00   2.830000E+00   2.830000E+00   2.830000E+00   2.830000E+00   2.830000E+00   2.830000E+00   2.830000E+00   2.830000E+00   2.830000E+00   2.830000E+00   2.830000E+00   2.830000E+00   2.830000E+00   2.830000E+00   2.830000E+00   2.830000E+00   2.830000E+00   2.830000E+00   2.830000E+00   2.830000E+00   2.830000E+00   2.830000E+00   2.830000E+00   2.830000E+00   2.830000E+00   2.830000E+00   2.830000E+00   2.830000E+00   2.830000E+00   2.830000E+00   2.830000E+00   2.830000E+00   2.830000E+00   2.830000E+00   2.830000E+00   2.830000E+00   2.830000E+00   2.830000E+00   2.830000E+00   2.830000E+00   2.830000E+00   2.830000E+00   2.830000E+00   2.830000E+00   2.830000E+00   2.830000E+00   2.830000E+00   2.830000E+00   2.830000E+00   2.830000E+00   2.830000E+00   2.830000E+00   2.830000E+00   2.830000E+00   2.830000E+00   2.830000E+00   2.830000E+00   2.830000E+00   2.830000E+00   2.830000E+00   2.830000E+00   2.830000E+00   2.830000E+00   2.830000E+00   2.830000E+00   2.830000E+00   2.830000E+00   2.830000E+00   2.830000E+00   2.830000E+00   2.830000E+00   2.830000E+00   2.830000E+00   2.830000E+00   2.830000E+00   2.830000E+00   2.830000E+00   2.830000E+00   2.830000E+00   2.830000E+00   2.830000E+00   2.830000E+00   2.830000E+00   2.830000E+00   2.830000E+00   2.830000E+00   2.830000E+00   2.830000E+00   2.830000E+00   2.830000E+00   2.830000E+00   2.830000E+00   2.830000E+00   2.830000E+00   2.830000E+00   2.830000E+00   2.830000E+00   2.830000E+00   2.830000E+00   2.830000E+00   2.830000E+00   2.830000E+00   2.830000E+00   2.830000E+00   2.830000E+00   2.830000E+00   2.830000E+00   2.830000E+00   2.830000E+00   2.830000E+00   2.830000E+00   2.830000E+00   2.830000E+00   2.830000E+00   2.830000E+00   2.830000E+00   2.830000E+00   2.830000E+00   2.830000E+00   2.830000E+00   2.830000E+00   2.830000E+00   2.830000E+00   2.830000E+00   2.830000E+00   2.830000E+00   2.830000E+00   2.830000E+00   2.830000E+00   2.830000E+00   2.830000E+00   2.830000E+00   2.830000E+00   2.830000E+00   2.830000E+00   2.830000E+00   2.830000E+00   2.830000E+00   2.830000E+00   2.830000E+00   2.830000E+00   2.830000E+00   2.830000E+00   2.830000E+00   2.830000E+00   2.830000E+00   2.830000E+00   2.830000E+00   2.830000E+00   2.830000E+00   2.830000E+00
   2.830000E+00   2.830000E+00   2.830000E+00   2.830000E+00   2.830000E+00   2.830000E+00   2.830000E+00   2.830000E+00   2.830000E+00   2.830000E+00   2.830000E+00   2.830000E+00   2.830000E+00   2.830000E+00   2.830000E+00   2.830000E+00   2.830000E+00   2.830000E+00   2.830000E+00   2.830000E+00   2.830000E+00   2.830000E+00   2.830000E+00   2.830000E+00   2.830000E+00   2.830000E+00   2.830000E+00   2.830000E+00   2.830000E+00   2.830000E+00   2.830000E+00   2.830000E+00   2.830000E+00   2.830000E+00   2.830000E+00   2.830000E+00   2.830000E+00   2.830000E+00   2.830000E+00   2.830000E+00   2.830000E+00   2.830000E+00   2.830000E+00   2.830000E+00   2.830000E+00   2.830000E+00   2.830000E+00   2.830000E+00   2.830000E+00   2.830000E+00   2.830000E+00   2.830000E+00   2.830000E+00   2.830000E+00   2.830000E+00   2.830000E+00   2.830000E+00   2.830000E+00   2.830000E+00   2.830000E+00   2.830000E+00   2.830000E+00   2.830000E+00   2.830000E+00   2.830000E+00   2.830000E+00   2.830000E+00   2.830000E+00   2.830000E+00   2.830000E+00   2.830000E+00   2.830000E+00   2.830000E+00   2.830000E+00   2.830000E+00   2.830000E+00   2.830000E+00   2.830000E+00   2.830000E+00   2.830000E+00   2.830000E+00   2.830000E+00   2.830000E+00   2.830000E+00   2.830000E+00   2.830000E+00   2.830000E+00   2.830000E+00   2.830000E+00   2.830000E+00   2.830000E+00   2.830000E+00   2.830000E+00   2.830000E+00   2.830000E+00   2.830000E+00   2.830000E+00   2.830000E+00   2.830000E+00   2.830000E+00   2.830000E+00   2.830000E+00   2.830000E+00   2.830000E+00   2.830000E+00   2.830000E+00   2.830000E+00   2.830000E+00   2.830000E+00   2.830000E+00   2.830000E+00   2.830000E+00   2.830000E+00   2.830000E+00   2.830000E+00   2.830000E+00   2.830000E+00   2.830000E+00   2.830000E+00   2.830000E+00   2.830000E+00   2.830000E+00   2.830000E+00   2.830000E+00   2.830000E+00   2.830000E+00   2.830000E+00   2.830000E+00   2.830000E+00   2.830000E+00   2.830000E+00   2.830000E+00   2.830000E+00   2.830000E+00   2.830000E+00   2.830000E+00   2.830000E+00   2.830000E+00   2.830000E+00   2.830000E+00   2.830000E+00   2.830000E+00   2.830000E+00   2.830000E+00   2.830000E+00   2.830000E+00   2.830000E+00   2.830000E+00   2.830000E+00   2.830000E+00   2.830000E+00   2.830000E+00   2.830000E+00   2.830000E+00   2.830000E+00   2.830000E+00   2.830000E+00   2.830000E+00   2.830000E+00   2.830000E+00   2.830000E+00   2.830000E+00   2.830000E+00   2.830000E+00   2.830000E+00   2.830000E+00   2.830000E+00   2.830000E+00   2.830000E+00   2.830000E+00   2.830000E+00   2.830000E+00   2.830000E+00   2.830000E+00   2.830000E+00   2.830000E+00   2.830000E+00   2.830000E+00   2.830000E+00   2.830000E+00   2.830000E+00   2.830000E+00
   2.830000E+00   2.830000E+00   2.830000E+00   2.830000E+00   2.830000E+00   2.830000E+00   2.830000E+00   2.830000E+00   2.830000E+00   2.830000E+00   2.830000E+00   2.830000E+00   2.830000E+00   2.830000E+00   2.830000E+00   2.830000E+00   2.830000E+00   2.830000E+00   2.830000E+00   2.830000E+00   2.830000E+00   2.830000E+00   2.830000E+00   2.830000E+00   2.830000E+00   2.830000E+00   2.830000E+00   2.830000E+00   2.830000E+00   2.830000E+00   2.830000E+00   2.830000E+00   2.830000E+00   2.830000E+00   2.830000E+00   2.830000E+00   2.830000E+00   2.830000E+00   2.830000E+00   2.830000E+00   2.830000E+00   2.830000E+00   2.830000E+00   2.830000E+00   2.830000E+00   2.830000E+00   2.830000E+00   2.830000E+00   2.830000E+00   2.830000E+00   2.830000E+00   2.830000E+00   2.830000E+00   2.830000E+00   2.830000E+00   2.830000E+00   2.830000E+00   2.830000E+00   2.830000E+00   2.830000E+00   2.830000E+00   2.830000E+00   2.830000E+00   2.830000E+00   2.830000E+00   2.830000E+00   2.830000E+00   2.830000E+00   2.830000E+00   2.830000E+00   2.830000E+00   2.830000E+00   2.830000E+00   2.830000E+00   2.830000E+00   2.830000E+00   2.830000E+00   2.830000E+00   2.830000E+00   2.830000E+00   2.830000E+00   2.830000E+00   2.830000E+00   2.830000E+00   2.830000E+00   2.830000E+00   2.830000E+00   2.830000E+00   2.830000E+00   2.830000E+00   2.830000E+00   2.830000E+00   2.830000E+00   2.830000E+00   2.830000E+00   2.830000E+00   2.830000E+00   2.830000E+00   2.830000E+00   2.830000E+00   2.830000E+00   2.830000E+00   2.830000E+00   2.830000E+00   2.830000E+00   2.830000E+00   2.830000E+00   2.830000E+00   2.830000E+00   2.830000E+00   2.830000E+00   2.830000E+00   2.830000E+00   2.830000E+00   2.830000E+00   2.830000E+00   2.830000E+00   2.830000E+00   2.830000E+00   2.830000E+00   2.830000E+00   2.830000E+00   2.830000E+00   2.830000E+00   2.830000E+00   2.830000E+00   2.830000E+00   2.830000E+00   2.830000E+00   2.830000E+00   2.830000E+00   2.830000E+00   2.830000E+00   2.830000E+00   2.830000E+00   2.830000E+00   2.830000E+00   2.830000E+00   2.830000E+00   2.830000E+00   2.830000E+00   2.830000E+00   2.830000E+00   2.830000E+00   2.830000E+00   2.830000E+00   2.830000E+00   2.830000E+00   2.830000E+00   2.830000E+00   2.830000E+00   2.830000E+00   2.830000E+00   2.830000E+00   2.830000E+00   2.830000E+00   2.830000E+00   2.830000E+00   2.830000E+00   2.830000E+00   2.830000E+00   2.830000E+00   2.830000E+00   2.830000E+00   2.830000E+00   2.830000E+00   2.830000E+00   2.830000E+00   2.830000E+00   2.830000E+00   2.830000E+00   2.830000E+00   2.830000E+00   2.830000E+00   2.830000E+00   2.830000E+00   2.830000E+00   2.830000E+00   2.830000E+00   2.830000E+00   2.830000E+00   2.830000E+00
   2.830000E+00   2.830000E+00   2.830000E+00   2.830000E+00   2.830000E+00   2.830000E+00   2.830000E+00   2.830000E+00   2.830000E+00   2.830000E+00   2.830000E+00   2.830000E+00   2.830000E+00   2.830000E+00   2.830000E+00   2.830000E+00   2.830000E+00   2.830000E+00   2.830000E+00   2.830000E+00   2.830000E+00   2.830000E+00   2.830000E+00   2.830000E+00   2.830000E+00   2.830000E+00   2.830000E+00   2.830000E+00   2.830000E+00   2.830000E+00   2.830000E+00   2.830000E+00   2.830000E+00   2.830000E+00   2.830000E+00   2.830000E+00   2.830000E+00   2.830000E+00   2.830000E+00   2.830000E+00   2.830000E+00   2.830000E+00   2.830000E+00   2.830000E+00   2.830000E+00   2.830000E+00   2.830000E+00   2.830000E+00   2.830000E+00   2.830000E+00   2.830000E+00   2.830000E+00   2.830000E+00   2.830000E+00   2.830000E+00   2.830000E+00   2.830000E+00   2.830000E+00   2.830000E+00   2.830000E+00   2.830000E+00   2.830000E+00   2.830000E+00   2.830000E+00   2.830000E+00   2.830000E+00   2.830000E+00   2.830000E+00   2.830000E+00   2.830000E+00   2.830000E+00   2.830000E+00   2.830000E+00   2.830000E+00   2.830000E+00   2.830000E+00   2.830000E+00   2.830000E+00   2.830000E+00   2.830000E+00   2.830000E+00   2.830000E+00   2.830000E+00   2.830000E+00   2.830000E+00   2.830000E+00   2.830000E+00   2.830000E+00   2.830000E+00   2.830000E+00   2.830000E+00   2.830000E+00   2.830000E+00   2.830000E+00   2.830000E+00   2.830000E+00   2.830000E+00   2.830000E+00   2.830000E+00   2.830000E+00   2.830000E+00   2.830000E+00   2.830000E+00   2.830000E+00   2.830000E+00   2.830000E+00   2.830000E+00   2.830000E+00   2.830000E+00   2.830000E+00   2.830000E+00   2.830000E+00   2.830000E+00   2.830000E+00   2.830000E+00   2.830000E+00   2.830000E+00   2.830000E+00   2.830000E+00   2.830000E+00   2.830000E+00   2.830000E+00   2.830000E+00   2.830000E+00   2.830000E+00   2.830000E+00   2.830000E+00   2.830000E+00   2.830000E+00   2.830000E+00   2.830000E+00   2.830000E+00   2.830000E+00   2.830000E+00   2.830000E+00   2.830000E+00   2.830000E+00   2.830000E+00   2.830000E+00   2.830000E+00   2.830000E+00   2.830000E+00   2.830000E+00   2.830000E+00   2.830000E+00   2.830000E+00   2.830000E+00   2.830000E+00   2.830000E+00   2.830000E+00   2.830000E+00   2.830000E+00   2.830000E+00   2.830000E+00   2.830000E+00   2.830000E+00   2.830000E+00   2.830000E+00   2.830000E+00   2.830000E+00   2.830000E+00   2.830000E+00   2.830000E+00   2.830000E+00   2.830000E+00   2.830000E+00   2.830000E+00   2.830000E+00   2.830000E+00   2.830000E+00   2.830000E+00   2.830000E+00   2.830000E+00   2.830000E+00   2.830000E+00   2.830000E+00   2.830000E+00   2.830000E+00   2.830000E+00   2.830000E+00   2.830000E+00   2.830000E+00
   2.830000E+00   2.830000E+00   2.830000E+00   2.830000E+00   2.830000E+00   2.830000E+00   2.830000E+00   2.830000E+00   2.830000E+00   2.830000E+00   2.830000E+00   2.830000E+00   2.830000E+00   2.830000E+00   2.830000E+00   2.830000E+00   2.830000E+00   2.830000E+00   2.830000E+00   2.830000E+00   2.830000E+00   2.830000E+00   2.830000E+00   2.830000E+00   2.830000E+00   2.830000E+00   2.830000E+00   2.830000E+00   2.830000E+00   2.830000E+00   2.830000E+00   2.830000E+00   2.830000E+00   2.830000E+00   2.830000E+00   2.830000E+00   2.830000E+00   2.830000E+00   2.830000E+00   2.830000E+00   2.830000E+00   2.830000E+00   2.830000E+00   2.830000E+00   2.830000E+00   2.830000E+00   2.830000E+00   2.830000E+00   2.830000E+00   2.830000E+00   2.830000E+00   2.830000E+00   2.830000E+00   2.830000E+00   2.830000E+00   2.830000E+00   2.830000E+00   2.830000E+00   2.830000E+00   2.830000E+00   2.830000E+00   2.830000E+00   2.830000E+00   2.830000E+00   2.830000E+00   2.830000E+00   2.830000E+00   2.830000E+00   2.830000E+00   2.830000E+00   2.830000E+00   2.830000E+00   2.830000E+00   2.830000E+00   2.830000E+00   2.830000E+00   2.830000E+00   2.830000E+00   2.830000E+00   2.830000E+00   2.830000E+00   2.830000E+00   2.830000E+00   2.830000E+00   2.830000E+00   2.830000E+00   2.830000E+00   2.830000E+00   2.830000E+00   2.830000E+00   2.830000E+00   2.830000E+00   2.830000E+00   2.830000E+00   2.830000E+00   2.830000E+00   2.830000E+00   2.830000E+00   2.830000E+00   2.830000E+00   2.830000E+00   2.830000E+00   2.830000E+00   2.830000E+00   2.830000E+00   2.830000E+00   2.830000E+00   2.830000E+00   2.830000E+00   2.830000E+00   2.830000E+00   2.830000E+00   2.830000E+00   2.830000E+00   2.830000E+00   2.830000E+00   2.830000E+00   2.830000E+00   2.830000E+00   2.830000E+00   2.830000E+00   2.830000E+00   2.830000E+00   2.830000E+00   2.830000E+00   2.830000E+00   2.830000E+00   2.830000E+00   2.830000E+00   2.830000E+00   2.830000E+00   2.830000E+00   2.830000E+00   2.830000E+00   2.830000E+00   2.830000E+00   2.830000E+00   2.830000E+00   2.830000E+00   2.830000E+00   2.830000E+00   2.830000E+00   2.830000E+00   2.830000E+00   2.830000E+00   2.830000E+00   2.830000E+00   2.830000E+00   2.830000E+00   2.830000E+00   2.830000E+00   2.830000E+00   2.830000E+00   2.830000E+00   2.830000E+00   2.830000E+00   2.830000E+00   2.830000E+00   2.830000E+00   2.830000E+00   2.830000E+00   2.830000E+00   2.830000E+00   2.830000E+00   2.830000E+00   2.830000E+00   2.830000E+00   2.830000E+00   2.830000E+00   2.830000E+00   2.830000E+00   2.830000E+00   2.830000E+00   2.830000E+00   2.830000E+00   2.830000E+00   2.830000E+00   2.830000E+00   2.830000E+00   2.830000E+00   2.830000E+00   2.830000E+00