# Name file for MODPATH, generated by Flopy version 3.3.5.
MPBAS  86 incised.mpbas
DIS  11 incised.dis
HEAD  88 incised.hds
BUDGET  89 incised.cbc
