# File generated by Flopy version 3.3.6 on 04/17/2023 at 12:44:03.
BEGIN options
END options

BEGIN packages
  DIS6  incised.dis  dis
  IC6  incised.ic  ic
  NPF6  incised.npf  npf
  OC6  incised.oc  oc
  CHD6  incised.chd  chd_0
END packages

