# File generated by Flopy version 3.3.6 on 04/13/2023 at 13:06:00.
BEGIN options
END options

BEGIN packages
  DIS6  incised.dis  dis
  IC6  incised.ic  ic
  NPF6  incised.npf  npf
  OC6  incised.oc  oc
  CHD6  incised.chd  chd_0
END packages

