# File generated by Flopy version 3.3.6 on 04/13/2023 at 13:06:24.
BEGIN options
END options

BEGIN dimensions
  MAXBOUND  1840
END dimensions

BEGIN period  1
  7 1 1     138.00000000
  7 2 1     138.00000000
  7 3 1     138.00000000
  7 4 1     138.00000000
  7 5 1     138.00000000
  7 6 1     138.00000000
  7 7 1     138.00000000
  7 8 1     138.00000000
  7 9 1     138.00000000
  7 10 1     138.00000000
  7 11 1     138.00000000
  7 12 1     138.00000000
  7 13 1     138.00000000
  7 14 1     138.00000000
  7 15 1     138.00000000
  7 16 1     138.00000000
  7 17 1     138.00000000
  7 18 1     138.00000000
  7 19 1     138.00000000
  7 20 1     138.00000000
  7 21 1     138.00000000
  7 22 1     138.00000000
  7 23 1     138.00000000
  7 24 1     138.00000000
  7 25 1     138.00000000
  7 26 1     138.00000000
  7 27 1     138.00000000
  7 28 1     138.00000000
  7 29 1     138.00000000
  7 30 1     138.00000000
  7 31 1     138.00000000
  7 32 1     138.00000000
  7 33 1     138.00000000
  7 34 1     138.00000000
  7 35 1     138.00000000
  7 36 1     138.00000000
  7 37 1     138.00000000
  7 38 1     138.00000000
  7 39 1     138.00000000
  7 40 1     138.00000000
  7 41 1     138.00000000
  7 42 1     138.00000000
  7 43 1     138.00000000
  7 44 1     138.00000000
  7 45 1     138.00000000
  7 46 1     138.00000000
  7 47 1     138.00000000
  7 48 1     138.00000000
  7 49 1     138.00000000
  7 50 1     138.00000000
  7 51 1     138.00000000
  7 52 1     138.00000000
  7 53 1     138.00000000
  7 54 1     138.00000000
  7 55 1     138.00000000
  7 56 1     138.00000000
  7 57 1     138.00000000
  7 58 1     138.00000000
  7 59 1     138.00000000
  7 60 1     138.00000000
  7 61 1     138.00000000
  7 62 1     138.00000000
  7 63 1     138.00000000
  7 64 1     138.00000000
  7 65 1     138.00000000
  7 66 1     138.00000000
  7 67 1     138.00000000
  7 68 1     138.00000000
  7 69 1     138.00000000
  7 70 1     138.00000000
  7 71 1     138.00000000
  7 72 1     138.00000000
  7 73 1     138.00000000
  7 74 1     138.00000000
  7 75 1     138.00000000
  7 76 1     138.00000000
  7 77 1     138.00000000
  7 78 1     138.00000000
  7 79 1     138.00000000
  7 80 1     138.00000000
  7 81 1     138.00000000
  7 82 1     138.00000000
  7 83 1     138.00000000
  7 84 1     138.00000000
  7 85 1     138.00000000
  7 86 1     138.00000000
  7 87 1     138.00000000
  7 88 1     138.00000000
  7 89 1     138.00000000
  7 90 1     138.00000000
  7 91 1     138.00000000
  7 92 1     138.00000000
  7 93 1     138.00000000
  7 94 1     138.00000000
  7 95 1     138.00000000
  7 96 1     138.00000000
  7 97 1     138.00000000
  7 98 1     138.00000000
  7 99 1     138.00000000
  7 100 1     138.00000000
  7 101 1     138.00000000
  7 102 1     138.00000000
  7 103 1     138.00000000
  7 104 1     138.00000000
  7 105 1     138.00000000
  7 106 1     138.00000000
  7 107 1     138.00000000
  7 108 1     138.00000000
  7 109 1     138.00000000
  7 110 1     138.00000000
  7 111 1     138.00000000
  7 112 1     138.00000000
  7 113 1     138.00000000
  7 114 1     138.00000000
  7 115 1     138.00000000
  8 1 1     138.00000000
  8 2 1     138.00000000
  8 3 1     138.00000000
  8 4 1     138.00000000
  8 5 1     138.00000000
  8 6 1     138.00000000
  8 7 1     138.00000000
  8 8 1     138.00000000
  8 9 1     138.00000000
  8 10 1     138.00000000
  8 11 1     138.00000000
  8 12 1     138.00000000
  8 13 1     138.00000000
  8 14 1     138.00000000
  8 15 1     138.00000000
  8 16 1     138.00000000
  8 17 1     138.00000000
  8 18 1     138.00000000
  8 19 1     138.00000000
  8 20 1     138.00000000
  8 21 1     138.00000000
  8 22 1     138.00000000
  8 23 1     138.00000000
  8 24 1     138.00000000
  8 25 1     138.00000000
  8 26 1     138.00000000
  8 27 1     138.00000000
  8 28 1     138.00000000
  8 29 1     138.00000000
  8 30 1     138.00000000
  8 31 1     138.00000000
  8 32 1     138.00000000
  8 33 1     138.00000000
  8 34 1     138.00000000
  8 35 1     138.00000000
  8 36 1     138.00000000
  8 37 1     138.00000000
  8 38 1     138.00000000
  8 39 1     138.00000000
  8 40 1     138.00000000
  8 41 1     138.00000000
  8 42 1     138.00000000
  8 43 1     138.00000000
  8 44 1     138.00000000
  8 45 1     138.00000000
  8 46 1     138.00000000
  8 47 1     138.00000000
  8 48 1     138.00000000
  8 49 1     138.00000000
  8 50 1     138.00000000
  8 51 1     138.00000000
  8 52 1     138.00000000
  8 53 1     138.00000000
  8 54 1     138.00000000
  8 55 1     138.00000000
  8 56 1     138.00000000
  8 57 1     138.00000000
  8 58 1     138.00000000
  8 59 1     138.00000000
  8 60 1     138.00000000
  8 61 1     138.00000000
  8 62 1     138.00000000
  8 63 1     138.00000000
  8 64 1     138.00000000
  8 65 1     138.00000000
  8 66 1     138.00000000
  8 67 1     138.00000000
  8 68 1     138.00000000
  8 69 1     138.00000000
  8 70 1     138.00000000
  8 71 1     138.00000000
  8 72 1     138.00000000
  8 73 1     138.00000000
  8 74 1     138.00000000
  8 75 1     138.00000000
  8 76 1     138.00000000
  8 77 1     138.00000000
  8 78 1     138.00000000
  8 79 1     138.00000000
  8 80 1     138.00000000
  8 81 1     138.00000000
  8 82 1     138.00000000
  8 83 1     138.00000000
  8 84 1     138.00000000
  8 85 1     138.00000000
  8 86 1     138.00000000
  8 87 1     138.00000000
  8 88 1     138.00000000
  8 89 1     138.00000000
  8 90 1     138.00000000
  8 91 1     138.00000000
  8 92 1     138.00000000
  8 93 1     138.00000000
  8 94 1     138.00000000
  8 95 1     138.00000000
  8 96 1     138.00000000
  8 97 1     138.00000000
  8 98 1     138.00000000
  8 99 1     138.00000000
  8 100 1     138.00000000
  8 101 1     138.00000000
  8 102 1     138.00000000
  8 103 1     138.00000000
  8 104 1     138.00000000
  8 105 1     138.00000000
  8 106 1     138.00000000
  8 107 1     138.00000000
  8 108 1     138.00000000
  8 109 1     138.00000000
  8 110 1     138.00000000
  8 111 1     138.00000000
  8 112 1     138.00000000
  8 113 1     138.00000000
  8 114 1     138.00000000
  8 115 1     138.00000000
  9 1 1     138.00000000
  9 2 1     138.00000000
  9 3 1     138.00000000
  9 4 1     138.00000000
  9 5 1     138.00000000
  9 6 1     138.00000000
  9 7 1     138.00000000
  9 8 1     138.00000000
  9 9 1     138.00000000
  9 10 1     138.00000000
  9 11 1     138.00000000
  9 12 1     138.00000000
  9 13 1     138.00000000
  9 14 1     138.00000000
  9 15 1     138.00000000
  9 16 1     138.00000000
  9 17 1     138.00000000
  9 18 1     138.00000000
  9 19 1     138.00000000
  9 20 1     138.00000000
  9 21 1     138.00000000
  9 22 1     138.00000000
  9 23 1     138.00000000
  9 24 1     138.00000000
  9 25 1     138.00000000
  9 26 1     138.00000000
  9 27 1     138.00000000
  9 28 1     138.00000000
  9 29 1     138.00000000
  9 30 1     138.00000000
  9 31 1     138.00000000
  9 32 1     138.00000000
  9 33 1     138.00000000
  9 34 1     138.00000000
  9 35 1     138.00000000
  9 36 1     138.00000000
  9 37 1     138.00000000
  9 38 1     138.00000000
  9 39 1     138.00000000
  9 40 1     138.00000000
  9 41 1     138.00000000
  9 42 1     138.00000000
  9 43 1     138.00000000
  9 44 1     138.00000000
  9 45 1     138.00000000
  9 46 1     138.00000000
  9 47 1     138.00000000
  9 48 1     138.00000000
  9 49 1     138.00000000
  9 50 1     138.00000000
  9 51 1     138.00000000
  9 52 1     138.00000000
  9 53 1     138.00000000
  9 54 1     138.00000000
  9 55 1     138.00000000
  9 56 1     138.00000000
  9 57 1     138.00000000
  9 58 1     138.00000000
  9 59 1     138.00000000
  9 60 1     138.00000000
  9 61 1     138.00000000
  9 62 1     138.00000000
  9 63 1     138.00000000
  9 64 1     138.00000000
  9 65 1     138.00000000
  9 66 1     138.00000000
  9 67 1     138.00000000
  9 68 1     138.00000000
  9 69 1     138.00000000
  9 70 1     138.00000000
  9 71 1     138.00000000
  9 72 1     138.00000000
  9 73 1     138.00000000
  9 74 1     138.00000000
  9 75 1     138.00000000
  9 76 1     138.00000000
  9 77 1     138.00000000
  9 78 1     138.00000000
  9 79 1     138.00000000
  9 80 1     138.00000000
  9 81 1     138.00000000
  9 82 1     138.00000000
  9 83 1     138.00000000
  9 84 1     138.00000000
  9 85 1     138.00000000
  9 86 1     138.00000000
  9 87 1     138.00000000
  9 88 1     138.00000000
  9 89 1     138.00000000
  9 90 1     138.00000000
  9 91 1     138.00000000
  9 92 1     138.00000000
  9 93 1     138.00000000
  9 94 1     138.00000000
  9 95 1     138.00000000
  9 96 1     138.00000000
  9 97 1     138.00000000
  9 98 1     138.00000000
  9 99 1     138.00000000
  9 100 1     138.00000000
  9 101 1     138.00000000
  9 102 1     138.00000000
  9 103 1     138.00000000
  9 104 1     138.00000000
  9 105 1     138.00000000
  9 106 1     138.00000000
  9 107 1     138.00000000
  9 108 1     138.00000000
  9 109 1     138.00000000
  9 110 1     138.00000000
  9 111 1     138.00000000
  9 112 1     138.00000000
  9 113 1     138.00000000
  9 114 1     138.00000000
  9 115 1     138.00000000
  10 1 1     138.00000000
  10 2 1     138.00000000
  10 3 1     138.00000000
  10 4 1     138.00000000
  10 5 1     138.00000000
  10 6 1     138.00000000
  10 7 1     138.00000000
  10 8 1     138.00000000
  10 9 1     138.00000000
  10 10 1     138.00000000
  10 11 1     138.00000000
  10 12 1     138.00000000
  10 13 1     138.00000000
  10 14 1     138.00000000
  10 15 1     138.00000000
  10 16 1     138.00000000
  10 17 1     138.00000000
  10 18 1     138.00000000
  10 19 1     138.00000000
  10 20 1     138.00000000
  10 21 1     138.00000000
  10 22 1     138.00000000
  10 23 1     138.00000000
  10 24 1     138.00000000
  10 25 1     138.00000000
  10 26 1     138.00000000
  10 27 1     138.00000000
  10 28 1     138.00000000
  10 29 1     138.00000000
  10 30 1     138.00000000
  10 31 1     138.00000000
  10 32 1     138.00000000
  10 33 1     138.00000000
  10 34 1     138.00000000
  10 35 1     138.00000000
  10 36 1     138.00000000
  10 37 1     138.00000000
  10 38 1     138.00000000
  10 39 1     138.00000000
  10 40 1     138.00000000
  10 41 1     138.00000000
  10 42 1     138.00000000
  10 43 1     138.00000000
  10 44 1     138.00000000
  10 45 1     138.00000000
  10 46 1     138.00000000
  10 47 1     138.00000000
  10 48 1     138.00000000
  10 49 1     138.00000000
  10 50 1     138.00000000
  10 51 1     138.00000000
  10 52 1     138.00000000
  10 53 1     138.00000000
  10 54 1     138.00000000
  10 55 1     138.00000000
  10 56 1     138.00000000
  10 57 1     138.00000000
  10 58 1     138.00000000
  10 59 1     138.00000000
  10 60 1     138.00000000
  10 61 1     138.00000000
  10 62 1     138.00000000
  10 63 1     138.00000000
  10 64 1     138.00000000
  10 65 1     138.00000000
  10 66 1     138.00000000
  10 67 1     138.00000000
  10 68 1     138.00000000
  10 69 1     138.00000000
  10 70 1     138.00000000
  10 71 1     138.00000000
  10 72 1     138.00000000
  10 73 1     138.00000000
  10 74 1     138.00000000
  10 75 1     138.00000000
  10 76 1     138.00000000
  10 77 1     138.00000000
  10 78 1     138.00000000
  10 79 1     138.00000000
  10 80 1     138.00000000
  10 81 1     138.00000000
  10 82 1     138.00000000
  10 83 1     138.00000000
  10 84 1     138.00000000
  10 85 1     138.00000000
  10 86 1     138.00000000
  10 87 1     138.00000000
  10 88 1     138.00000000
  10 89 1     138.00000000
  10 90 1     138.00000000
  10 91 1     138.00000000
  10 92 1     138.00000000
  10 93 1     138.00000000
  10 94 1     138.00000000
  10 95 1     138.00000000
  10 96 1     138.00000000
  10 97 1     138.00000000
  10 98 1     138.00000000
  10 99 1     138.00000000
  10 100 1     138.00000000
  10 101 1     138.00000000
  10 102 1     138.00000000
  10 103 1     138.00000000
  10 104 1     138.00000000
  10 105 1     138.00000000
  10 106 1     138.00000000
  10 107 1     138.00000000
  10 108 1     138.00000000
  10 109 1     138.00000000
  10 110 1     138.00000000
  10 111 1     138.00000000
  10 112 1     138.00000000
  10 113 1     138.00000000
  10 114 1     138.00000000
  10 115 1     138.00000000
  11 1 1     138.00000000
  11 2 1     138.00000000
  11 3 1     138.00000000
  11 4 1     138.00000000
  11 5 1     138.00000000
  11 6 1     138.00000000
  11 7 1     138.00000000
  11 8 1     138.00000000
  11 9 1     138.00000000
  11 10 1     138.00000000
  11 11 1     138.00000000
  11 12 1     138.00000000
  11 13 1     138.00000000
  11 14 1     138.00000000
  11 15 1     138.00000000
  11 16 1     138.00000000
  11 17 1     138.00000000
  11 18 1     138.00000000
  11 19 1     138.00000000
  11 20 1     138.00000000
  11 21 1     138.00000000
  11 22 1     138.00000000
  11 23 1     138.00000000
  11 24 1     138.00000000
  11 25 1     138.00000000
  11 26 1     138.00000000
  11 27 1     138.00000000
  11 28 1     138.00000000
  11 29 1     138.00000000
  11 30 1     138.00000000
  11 31 1     138.00000000
  11 32 1     138.00000000
  11 33 1     138.00000000
  11 34 1     138.00000000
  11 35 1     138.00000000
  11 36 1     138.00000000
  11 37 1     138.00000000
  11 38 1     138.00000000
  11 39 1     138.00000000
  11 40 1     138.00000000
  11 41 1     138.00000000
  11 42 1     138.00000000
  11 43 1     138.00000000
  11 44 1     138.00000000
  11 45 1     138.00000000
  11 46 1     138.00000000
  11 47 1     138.00000000
  11 48 1     138.00000000
  11 49 1     138.00000000
  11 50 1     138.00000000
  11 51 1     138.00000000
  11 52 1     138.00000000
  11 53 1     138.00000000
  11 54 1     138.00000000
  11 55 1     138.00000000
  11 56 1     138.00000000
  11 57 1     138.00000000
  11 58 1     138.00000000
  11 59 1     138.00000000
  11 60 1     138.00000000
  11 61 1     138.00000000
  11 62 1     138.00000000
  11 63 1     138.00000000
  11 64 1     138.00000000
  11 65 1     138.00000000
  11 66 1     138.00000000
  11 67 1     138.00000000
  11 68 1     138.00000000
  11 69 1     138.00000000
  11 70 1     138.00000000
  11 71 1     138.00000000
  11 72 1     138.00000000
  11 73 1     138.00000000
  11 74 1     138.00000000
  11 75 1     138.00000000
  11 76 1     138.00000000
  11 77 1     138.00000000
  11 78 1     138.00000000
  11 79 1     138.00000000
  11 80 1     138.00000000
  11 81 1     138.00000000
  11 82 1     138.00000000
  11 83 1     138.00000000
  11 84 1     138.00000000
  11 85 1     138.00000000
  11 86 1     138.00000000
  11 87 1     138.00000000
  11 88 1     138.00000000
  11 89 1     138.00000000
  11 90 1     138.00000000
  11 91 1     138.00000000
  11 92 1     138.00000000
  11 93 1     138.00000000
  11 94 1     138.00000000
  11 95 1     138.00000000
  11 96 1     138.00000000
  11 97 1     138.00000000
  11 98 1     138.00000000
  11 99 1     138.00000000
  11 100 1     138.00000000
  11 101 1     138.00000000
  11 102 1     138.00000000
  11 103 1     138.00000000
  11 104 1     138.00000000
  11 105 1     138.00000000
  11 106 1     138.00000000
  11 107 1     138.00000000
  11 108 1     138.00000000
  11 109 1     138.00000000
  11 110 1     138.00000000
  11 111 1     138.00000000
  11 112 1     138.00000000
  11 113 1     138.00000000
  11 114 1     138.00000000
  11 115 1     138.00000000
  12 1 1     138.00000000
  12 2 1     138.00000000
  12 3 1     138.00000000
  12 4 1     138.00000000
  12 5 1     138.00000000
  12 6 1     138.00000000
  12 7 1     138.00000000
  12 8 1     138.00000000
  12 9 1     138.00000000
  12 10 1     138.00000000
  12 11 1     138.00000000
  12 12 1     138.00000000
  12 13 1     138.00000000
  12 14 1     138.00000000
  12 15 1     138.00000000
  12 16 1     138.00000000
  12 17 1     138.00000000
  12 18 1     138.00000000
  12 19 1     138.00000000
  12 20 1     138.00000000
  12 21 1     138.00000000
  12 22 1     138.00000000
  12 23 1     138.00000000
  12 24 1     138.00000000
  12 25 1     138.00000000
  12 26 1     138.00000000
  12 27 1     138.00000000
  12 28 1     138.00000000
  12 29 1     138.00000000
  12 30 1     138.00000000
  12 31 1     138.00000000
  12 32 1     138.00000000
  12 33 1     138.00000000
  12 34 1     138.00000000
  12 35 1     138.00000000
  12 36 1     138.00000000
  12 37 1     138.00000000
  12 38 1     138.00000000
  12 39 1     138.00000000
  12 40 1     138.00000000
  12 41 1     138.00000000
  12 42 1     138.00000000
  12 43 1     138.00000000
  12 44 1     138.00000000
  12 45 1     138.00000000
  12 46 1     138.00000000
  12 47 1     138.00000000
  12 48 1     138.00000000
  12 49 1     138.00000000
  12 50 1     138.00000000
  12 51 1     138.00000000
  12 52 1     138.00000000
  12 53 1     138.00000000
  12 54 1     138.00000000
  12 55 1     138.00000000
  12 56 1     138.00000000
  12 57 1     138.00000000
  12 58 1     138.00000000
  12 59 1     138.00000000
  12 60 1     138.00000000
  12 61 1     138.00000000
  12 62 1     138.00000000
  12 63 1     138.00000000
  12 64 1     138.00000000
  12 65 1     138.00000000
  12 66 1     138.00000000
  12 67 1     138.00000000
  12 68 1     138.00000000
  12 69 1     138.00000000
  12 70 1     138.00000000
  12 71 1     138.00000000
  12 72 1     138.00000000
  12 73 1     138.00000000
  12 74 1     138.00000000
  12 75 1     138.00000000
  12 76 1     138.00000000
  12 77 1     138.00000000
  12 78 1     138.00000000
  12 79 1     138.00000000
  12 80 1     138.00000000
  12 81 1     138.00000000
  12 82 1     138.00000000
  12 83 1     138.00000000
  12 84 1     138.00000000
  12 85 1     138.00000000
  12 86 1     138.00000000
  12 87 1     138.00000000
  12 88 1     138.00000000
  12 89 1     138.00000000
  12 90 1     138.00000000
  12 91 1     138.00000000
  12 92 1     138.00000000
  12 93 1     138.00000000
  12 94 1     138.00000000
  12 95 1     138.00000000
  12 96 1     138.00000000
  12 97 1     138.00000000
  12 98 1     138.00000000
  12 99 1     138.00000000
  12 100 1     138.00000000
  12 101 1     138.00000000
  12 102 1     138.00000000
  12 103 1     138.00000000
  12 104 1     138.00000000
  12 105 1     138.00000000
  12 106 1     138.00000000
  12 107 1     138.00000000
  12 108 1     138.00000000
  12 109 1     138.00000000
  12 110 1     138.00000000
  12 111 1     138.00000000
  12 112 1     138.00000000
  12 113 1     138.00000000
  12 114 1     138.00000000
  12 115 1     138.00000000
  13 1 1     138.00000000
  13 2 1     138.00000000
  13 3 1     138.00000000
  13 4 1     138.00000000
  13 5 1     138.00000000
  13 6 1     138.00000000
  13 7 1     138.00000000
  13 8 1     138.00000000
  13 9 1     138.00000000
  13 10 1     138.00000000
  13 11 1     138.00000000
  13 12 1     138.00000000
  13 13 1     138.00000000
  13 14 1     138.00000000
  13 15 1     138.00000000
  13 16 1     138.00000000
  13 17 1     138.00000000
  13 18 1     138.00000000
  13 19 1     138.00000000
  13 20 1     138.00000000
  13 21 1     138.00000000
  13 22 1     138.00000000
  13 23 1     138.00000000
  13 24 1     138.00000000
  13 25 1     138.00000000
  13 26 1     138.00000000
  13 27 1     138.00000000
  13 28 1     138.00000000
  13 29 1     138.00000000
  13 30 1     138.00000000
  13 31 1     138.00000000
  13 32 1     138.00000000
  13 33 1     138.00000000
  13 34 1     138.00000000
  13 35 1     138.00000000
  13 36 1     138.00000000
  13 37 1     138.00000000
  13 38 1     138.00000000
  13 39 1     138.00000000
  13 40 1     138.00000000
  13 41 1     138.00000000
  13 42 1     138.00000000
  13 43 1     138.00000000
  13 44 1     138.00000000
  13 45 1     138.00000000
  13 46 1     138.00000000
  13 47 1     138.00000000
  13 48 1     138.00000000
  13 49 1     138.00000000
  13 50 1     138.00000000
  13 51 1     138.00000000
  13 52 1     138.00000000
  13 53 1     138.00000000
  13 54 1     138.00000000
  13 55 1     138.00000000
  13 56 1     138.00000000
  13 57 1     138.00000000
  13 58 1     138.00000000
  13 59 1     138.00000000
  13 60 1     138.00000000
  13 61 1     138.00000000
  13 62 1     138.00000000
  13 63 1     138.00000000
  13 64 1     138.00000000
  13 65 1     138.00000000
  13 66 1     138.00000000
  13 67 1     138.00000000
  13 68 1     138.00000000
  13 69 1     138.00000000
  13 70 1     138.00000000
  13 71 1     138.00000000
  13 72 1     138.00000000
  13 73 1     138.00000000
  13 74 1     138.00000000
  13 75 1     138.00000000
  13 76 1     138.00000000
  13 77 1     138.00000000
  13 78 1     138.00000000
  13 79 1     138.00000000
  13 80 1     138.00000000
  13 81 1     138.00000000
  13 82 1     138.00000000
  13 83 1     138.00000000
  13 84 1     138.00000000
  13 85 1     138.00000000
  13 86 1     138.00000000
  13 87 1     138.00000000
  13 88 1     138.00000000
  13 89 1     138.00000000
  13 90 1     138.00000000
  13 91 1     138.00000000
  13 92 1     138.00000000
  13 93 1     138.00000000
  13 94 1     138.00000000
  13 95 1     138.00000000
  13 96 1     138.00000000
  13 97 1     138.00000000
  13 98 1     138.00000000
  13 99 1     138.00000000
  13 100 1     138.00000000
  13 101 1     138.00000000
  13 102 1     138.00000000
  13 103 1     138.00000000
  13 104 1     138.00000000
  13 105 1     138.00000000
  13 106 1     138.00000000
  13 107 1     138.00000000
  13 108 1     138.00000000
  13 109 1     138.00000000
  13 110 1     138.00000000
  13 111 1     138.00000000
  13 112 1     138.00000000
  13 113 1     138.00000000
  13 114 1     138.00000000
  13 115 1     138.00000000
  14 1 1     138.00000000
  14 2 1     138.00000000
  14 3 1     138.00000000
  14 4 1     138.00000000
  14 5 1     138.00000000
  14 6 1     138.00000000
  14 7 1     138.00000000
  14 8 1     138.00000000
  14 9 1     138.00000000
  14 10 1     138.00000000
  14 11 1     138.00000000
  14 12 1     138.00000000
  14 13 1     138.00000000
  14 14 1     138.00000000
  14 15 1     138.00000000
  14 16 1     138.00000000
  14 17 1     138.00000000
  14 18 1     138.00000000
  14 19 1     138.00000000
  14 20 1     138.00000000
  14 21 1     138.00000000
  14 22 1     138.00000000
  14 23 1     138.00000000
  14 24 1     138.00000000
  14 25 1     138.00000000
  14 26 1     138.00000000
  14 27 1     138.00000000
  14 28 1     138.00000000
  14 29 1     138.00000000
  14 30 1     138.00000000
  14 31 1     138.00000000
  14 32 1     138.00000000
  14 33 1     138.00000000
  14 34 1     138.00000000
  14 35 1     138.00000000
  14 36 1     138.00000000
  14 37 1     138.00000000
  14 38 1     138.00000000
  14 39 1     138.00000000
  14 40 1     138.00000000
  14 41 1     138.00000000
  14 42 1     138.00000000
  14 43 1     138.00000000
  14 44 1     138.00000000
  14 45 1     138.00000000
  14 46 1     138.00000000
  14 47 1     138.00000000
  14 48 1     138.00000000
  14 49 1     138.00000000
  14 50 1     138.00000000
  14 51 1     138.00000000
  14 52 1     138.00000000
  14 53 1     138.00000000
  14 54 1     138.00000000
  14 55 1     138.00000000
  14 56 1     138.00000000
  14 57 1     138.00000000
  14 58 1     138.00000000
  14 59 1     138.00000000
  14 60 1     138.00000000
  14 61 1     138.00000000
  14 62 1     138.00000000
  14 63 1     138.00000000
  14 64 1     138.00000000
  14 65 1     138.00000000
  14 66 1     138.00000000
  14 67 1     138.00000000
  14 68 1     138.00000000
  14 69 1     138.00000000
  14 70 1     138.00000000
  14 71 1     138.00000000
  14 72 1     138.00000000
  14 73 1     138.00000000
  14 74 1     138.00000000
  14 75 1     138.00000000
  14 76 1     138.00000000
  14 77 1     138.00000000
  14 78 1     138.00000000
  14 79 1     138.00000000
  14 80 1     138.00000000
  14 81 1     138.00000000
  14 82 1     138.00000000
  14 83 1     138.00000000
  14 84 1     138.00000000
  14 85 1     138.00000000
  14 86 1     138.00000000
  14 87 1     138.00000000
  14 88 1     138.00000000
  14 89 1     138.00000000
  14 90 1     138.00000000
  14 91 1     138.00000000
  14 92 1     138.00000000
  14 93 1     138.00000000
  14 94 1     138.00000000
  14 95 1     138.00000000
  14 96 1     138.00000000
  14 97 1     138.00000000
  14 98 1     138.00000000
  14 99 1     138.00000000
  14 100 1     138.00000000
  14 101 1     138.00000000
  14 102 1     138.00000000
  14 103 1     138.00000000
  14 104 1     138.00000000
  14 105 1     138.00000000
  14 106 1     138.00000000
  14 107 1     138.00000000
  14 108 1     138.00000000
  14 109 1     138.00000000
  14 110 1     138.00000000
  14 111 1     138.00000000
  14 112 1     138.00000000
  14 113 1     138.00000000
  14 114 1     138.00000000
  14 115 1     138.00000000
  15 1 1     138.00000000
  15 2 1     138.00000000
  15 3 1     138.00000000
  15 4 1     138.00000000
  15 5 1     138.00000000
  15 6 1     138.00000000
  15 7 1     138.00000000
  15 8 1     138.00000000
  15 9 1     138.00000000
  15 10 1     138.00000000
  15 11 1     138.00000000
  15 12 1     138.00000000
  15 13 1     138.00000000
  15 14 1     138.00000000
  15 15 1     138.00000000
  15 16 1     138.00000000
  15 17 1     138.00000000
  15 18 1     138.00000000
  15 19 1     138.00000000
  15 20 1     138.00000000
  15 21 1     138.00000000
  15 22 1     138.00000000
  15 23 1     138.00000000
  15 24 1     138.00000000
  15 25 1     138.00000000
  15 26 1     138.00000000
  15 27 1     138.00000000
  15 28 1     138.00000000
  15 29 1     138.00000000
  15 30 1     138.00000000
  15 31 1     138.00000000
  15 32 1     138.00000000
  15 33 1     138.00000000
  15 34 1     138.00000000
  15 35 1     138.00000000
  15 36 1     138.00000000
  15 37 1     138.00000000
  15 38 1     138.00000000
  15 39 1     138.00000000
  15 40 1     138.00000000
  15 41 1     138.00000000
  15 42 1     138.00000000
  15 43 1     138.00000000
  15 44 1     138.00000000
  15 45 1     138.00000000
  15 46 1     138.00000000
  15 47 1     138.00000000
  15 48 1     138.00000000
  15 49 1     138.00000000
  15 50 1     138.00000000
  15 51 1     138.00000000
  15 52 1     138.00000000
  15 53 1     138.00000000
  15 54 1     138.00000000
  15 55 1     138.00000000
  15 56 1     138.00000000
  15 57 1     138.00000000
  15 58 1     138.00000000
  15 59 1     138.00000000
  15 60 1     138.00000000
  15 61 1     138.00000000
  15 62 1     138.00000000
  15 63 1     138.00000000
  15 64 1     138.00000000
  15 65 1     138.00000000
  15 66 1     138.00000000
  15 67 1     138.00000000
  15 68 1     138.00000000
  15 69 1     138.00000000
  15 70 1     138.00000000
  15 71 1     138.00000000
  15 72 1     138.00000000
  15 73 1     138.00000000
  15 74 1     138.00000000
  15 75 1     138.00000000
  15 76 1     138.00000000
  15 77 1     138.00000000
  15 78 1     138.00000000
  15 79 1     138.00000000
  15 80 1     138.00000000
  15 81 1     138.00000000
  15 82 1     138.00000000
  15 83 1     138.00000000
  15 84 1     138.00000000
  15 85 1     138.00000000
  15 86 1     138.00000000
  15 87 1     138.00000000
  15 88 1     138.00000000
  15 89 1     138.00000000
  15 90 1     138.00000000
  15 91 1     138.00000000
  15 92 1     138.00000000
  15 93 1     138.00000000
  15 94 1     138.00000000
  15 95 1     138.00000000
  15 96 1     138.00000000
  15 97 1     138.00000000
  15 98 1     138.00000000
  15 99 1     138.00000000
  15 100 1     138.00000000
  15 101 1     138.00000000
  15 102 1     138.00000000
  15 103 1     138.00000000
  15 104 1     138.00000000
  15 105 1     138.00000000
  15 106 1     138.00000000
  15 107 1     138.00000000
  15 108 1     138.00000000
  15 109 1     138.00000000
  15 110 1     138.00000000
  15 111 1     138.00000000
  15 112 1     138.00000000
  15 113 1     138.00000000
  15 114 1     138.00000000
  15 115 1     138.00000000
  9 1 230     114.00000000
  9 2 230     114.00000000
  9 3 230     114.00000000
  9 4 230     114.00000000
  9 5 230     114.00000000
  9 6 230     114.00000000
  9 7 230     114.00000000
  9 8 230     114.00000000
  9 9 230     114.00000000
  9 10 230     114.00000000
  9 11 230     114.00000000
  9 12 230     114.00000000
  9 13 230     114.00000000
  9 14 230     114.00000000
  9 15 230     114.00000000
  9 16 230     114.00000000
  9 17 230     114.00000000
  9 18 230     114.00000000
  9 19 230     114.00000000
  9 20 230     114.00000000
  9 21 230     114.00000000
  9 22 230     114.00000000
  9 23 230     114.00000000
  9 24 230     114.00000000
  9 25 230     114.00000000
  9 26 230     114.00000000
  9 27 230     114.00000000
  9 28 230     114.00000000
  9 29 230     114.00000000
  9 30 230     114.00000000
  9 31 230     114.00000000
  9 32 230     114.00000000
  9 33 230     114.00000000
  9 34 230     114.00000000
  9 35 230     114.00000000
  9 36 230     114.00000000
  9 37 230     114.00000000
  9 38 230     114.00000000
  9 39 230     114.00000000
  9 40 230     114.00000000
  9 41 230     114.00000000
  9 42 230     114.00000000
  9 43 230     114.00000000
  9 44 230     114.00000000
  9 45 230     114.00000000
  9 46 230     114.00000000
  9 47 230     114.00000000
  9 48 230     114.00000000
  9 49 230     114.00000000
  9 50 230     114.00000000
  9 51 230     114.00000000
  9 52 230     114.00000000
  9 53 230     114.00000000
  9 54 230     114.00000000
  9 55 230     114.00000000
  9 56 230     114.00000000
  9 57 230     114.00000000
  9 58 230     114.00000000
  9 59 230     114.00000000
  9 60 230     114.00000000
  9 61 230     114.00000000
  9 62 230     114.00000000
  9 63 230     114.00000000
  9 64 230     114.00000000
  9 65 230     114.00000000
  9 66 230     114.00000000
  9 67 230     114.00000000
  9 68 230     114.00000000
  9 69 230     114.00000000
  9 70 230     114.00000000
  9 71 230     114.00000000
  9 72 230     114.00000000
  9 73 230     114.00000000
  9 74 230     114.00000000
  9 75 230     114.00000000
  9 76 230     114.00000000
  9 77 230     114.00000000
  9 78 230     114.00000000