# File generated by Flopy version 3.3.6 on 04/13/2023 at 13:06:24.
BEGIN options
  BUDGET  FILEOUT  incised.cbb
  HEAD  FILEOUT  incised.hds
END options

BEGIN period  1
  SAVE  HEAD  ALL
  SAVE  BUDGET  ALL
  PRINT  BUDGET  ALL
END period  1

