## BTN for MT3DMS, generated by Flopy.
##
         3        91       182         1         1         1
D   M   g   
T T T F T 
 1 1 1
         0    43.516                           -1 #delr
         0    43.516                           -1 #delc
         0       200                           -1 #htop
        31         1         (182E15.6)        -1 #dz layer 1
  -0.000000E+00  -0.000000E+00  -0.000000E+00  -0.000000E+00  -0.000000E+00  -0.000000E+00  -0.000000E+00  -0.000000E+00  -0.000000E+00  -0.000000E+00  -0.000000E+00  -0.000000E+00  -0.000000E+00  -0.000000E+00  -0.000000E+00  -0.000000E+00  -0.000000E+00  -0.000000E+00  -0.000000E+00  -0.000000E+00  -0.000000E+00  -0.000000E+00  -0.000000E+00  -0.000000E+00  -0.000000E+00  -0.000000E+00  -0.000000E+00  -0.000000E+00  -0.000000E+00  -0.000000E+00  -0.000000E+00  -0.000000E+00  -0.000000E+00  -0.000000E+00  -0.000000E+00  -0.000000E+00  -0.000000E+00  -0.000000E+00  -0.000000E+00  -0.000000E+00  -0.000000E+00  -0.000000E+00  -0.000000E+00  -0.000000E+00  -0.000000E+00  -0.000000E+00  -0.000000E+00  -0.000000E+00  -0.000000E+00  -0.000000E+00  -0.000000E+00  -0.000000E+00  -0.000000E+00  -0.000000E+00  -0.000000E+00  -0.000000E+00  -0.000000E+00  -0.000000E+00  -0.000000E+00  -0.000000E+00  -0.000000E+00  -0.000000E+00  -0.000000E+00  -0.000000E+00  -0.000000E+00  -0.000000E+00  -0.000000E+00  -0.000000E+00  -0.000000E+00  -0.000000E+00  -0.000000E+00  -0.000000E+00  -0.000000E+00  -0.000000E+00  -0.000000E+00  -0.000000E+00  -0.000000E+00  -0.000000E+00  -0.000000E+00  -0.000000E+00  -0.000000E+00  -0.000000E+00  -0.000000E+00  -0.000000E+00  -0.000000E+00  -0.000000E+00  -0.000000E+00  -0.000000E+00  -0.000000E+00  -0.000000E+00  -0.000000E+00  -0.000000E+00  -0.000000E+00  -0.000000E+00  -0.000000E+00  -0.000000E+00  -0.000000E+00  -0.000000E+00  -0.000000E+00  -0.000000E+00  -0.000000E+00  -0.000000E+00  -0.000000E+00  -0.000000E+00  -0.000000E+00  -0.000000E+00  -0.000000E+00  -0.000000E+00  -0.000000E+00  -0.000000E+00  -0.000000E+00  -0.000000E+00  -0.000000E+00  -0.000000E+00  -0.000000E+00  -0.000000E+00  -0.000000E+00  -0.000000E+00  -0.000000E+00  -0.000000E+00  -0.000000E+00  -0.000000E+00  -0.000000E+00  -0.000000E+00  -0.000000E+00  -0.000000E+00  -0.000000E+00  -0.000000E+00  -0.000000E+00  -0.000000E+00  -0.000000E+00  -0.000000E+00  -0.000000E+00  -0.000000E+00  -0.000000E+00  -0.000000E+00  -0.000000E+00  -0.000000E+00  -0.000000E+00  -0.000000E+00  -0.000000E+00  -0.000000E+00  -0.000000E+00  -0.000000E+00  -0.000000E+00  -0.000000E+00  -0.000000E+00  -0.000000E+00  -0.000000E+00  -0.000000E+00  -0.000000E+00  -0.000000E+00  -0.000000E+00  -0.000000E+00  -0.000000E+00  -0.000000E+00  -0.000000E+00  -0.000000E+00  -0.000000E+00  -0.000000E+00  -0.000000E+00  -0.000000E+00  -0.000000E+00  -0.000000E+00  -0.000000E+00  -0.000000E+00  -0.000000E+00  -0.000000E+00  -0.000000E+00  -0.000000E+00  -0.000000E+00  -0.000000E+00  -0.000000E+00  -0.000000E+00  -0.000000E+00  -0.000000E+00  -0.000000E+00  -0.000000E+00  -0.000000E+00  -0.000000E+00  -0.000000E+00  -0.000000E+00
  -0.000000E+00  -0.000000E+00  -0.000000E+00  -0.000000E+00  -0.000000E+00  -0.000000E+00  -0.000000E+00  -0.000000E+00  -0.000000E+00  -0.000000E+00  -0.000000E+00  -0.000000E+00  -0.000000E+00  -0.000000E+00  -0.000000E+00  -0.000000E+00  -0.000000E+00  -0.000000E+00  -0.000000E+00  -0.000000E+00  -0.000000E+00  -0.000000E+00  -0.000000E+00  -0.000000E+00  -0.000000E+00  -0.000000E+00  -0.000000E+00  -0.000000E+00  -0.000000E+00  -0.000000E+00  -0.000000E+00  -0.000000E+00  -0.000000E+00  -0.000000E+00  -0.000000E+00  -0.000000E+00  -0.000000E+00  -0.000000E+00  -0.000000E+00  -0.000000E+00  -0.000000E+00  -0.000000E+00  -0.000000E+00  -0.000000E+00  -0.000000E+00  -0.000000E+00  -0.000000E+00  -0.000000E+00  -0.000000E+00  -0.000000E+00  -0.000000E+00  -0.000000E+00  -0.000000E+00  -0.000000E+00  -0.000000E+00  -0.000000E+00  -0.000000E+00  -0.000000E+00  -0.000000E+00  -0.000000E+00  -0.000000E+00  -0.000000E+00  -0.000000E+00  -0.000000E+00  -0.000000E+00  -0.000000E+00  -0.000000E+00  -0.000000E+00  -0.000000E+00  -0.000000E+00  -0.000000E+00  -0.000000E+00  -0.000000E+00  -0.000000E+00  -0.000000E+00  -0.000000E+00  -0.000000E+00  -0.000000E+00  -0.000000E+00  -0.000000E+00  -0.000000E+00  -0.000000E+00  -0.000000E+00  -0.000000E+00  -0.000000E+00  -0.000000E+00  -0.000000E+00  -0.000000E+00  -0.000000E+00  -0.000000E+00  -0.000000E+00  -0.000000E+00  -0.000000E+00  -0.000000E+00  -0.000000E+00  -0.000000E+00  -0.000000E+00  -0.000000E+00  -0.000000E+00  -0.000000E+00  -0.000000E+00  -0.000000E+00  -0.000000E+00  -0.000000E+00  -0.000000E+00  -0.000000E+00  -0.000000E+00  -0.000000E+00  -0.000000E+00  -0.000000E+00  -0.000000E+00  -0.000000E+00  -0.000000E+00  -0.000000E+00  -0.000000E+00  -0.000000E+00  -0.000000E+00  -0.000000E+00  -0.000000E+00  -0.000000E+00  -0.000000E+00  -0.000000E+00  -0.000000E+00  -0.000000E+00  -0.000000E+00  -0.000000E+00  -0.000000E+00  -0.000000E+00  -0.000000E+00  -0.000000E+00  -0.000000E+00  -0.000000E+00  -0.000000E+00  -0.000000E+00  -0.000000E+00  -0.000000E+00  -0.000000E+00  -0.000000E+00  -0.000000E+00  -0.000000E+00  -0.000000E+00  -0.000000E+00  -0.000000E+00  -0.000000E+00  -0.000000E+00  -0.000000E+00  -0.000000E+00  -0.000000E+00  -0.000000E+00  -0.000000E+00  -0.000000E+00  -0.000000E+00  -0.000000E+00  -0.000000E+00  -0.000000E+00  -0.000000E+00  -0.000000E+00  -0.000000E+00  -0.000000E+00  -0.000000E+00  -0.000000E+00  -0.000000E+00  -0.000000E+00  -0.000000E+00  -0.000000E+00  -0.000000E+00  -0.000000E+00  -0.000000E+00  -0.000000E+00  -0.000000E+00  -0.000000E+00  -0.000000E+00  -0.000000E+00  -0.000000E+00  -0.000000E+00  -0.000000E+00  -0.000000E+00  -0.000000E+00  -0.000000E+00  -0.000000E+00  -0.000000E+00  -0.000000E+00
  -0.000000E+00  -0.000000E+00  -0.000000E+00  -0.000000E+00  -0.000000E+00  -0.000000E+00  -0.000000E+00  -0.000000E+00  -0.000000E+00  -0.000000E+00  -0.000000E+00  -0.000000E+00  -0.000000E+00  -0.000000E+00  -0.000000E+00  -0.000000E+00  -0.000000E+00  -0.000000E+00  -0.000000E+00  -0.000000E+00  -0.000000E+00  -0.000000E+00  -0.000000E+00  -0.000000E+00  -0.000000E+00  -0.000000E+00  -0.000000E+00  -0.000000E+00  -0.000000E+00  -0.000000E+00  -0.000000E+00  -0.000000E+00  -0.000000E+00  -0.000000E+00  -0.000000E+00  -0.000000E+00  -0.000000E+00  -0.000000E+00  -0.000000E+00  -0.000000E+00  -0.000000E+00  -0.000000E+00  -0.000000E+00  -0.000000E+00  -0.000000E+00  -0.000000E+00  -0.000000E+00  -0.000000E+00  -0.000000E+00  -0.000000E+00  -0.000000E+00  -0.000000E+00  -0.000000E+00  -0.000000E+00  -0.000000E+00  -0.000000E+00  -0.000000E+00  -0.000000E+00  -0.000000E+00  -0.000000E+00  -0.000000E+00  -0.000000E+00  -0.000000E+00  -0.000000E+00  -0.000000E+00  -0.000000E+00  -0.000000E+00  -0.000000E+00  -0.000000E+00  -0.000000E+00  -0.000000E+00  -0.000000E+00  -0.000000E+00  -0.000000E+00  -0.000000E+00  -0.000000E+00  -0.000000E+00  -0.000000E+00  -0.000000E+00  -0.000000E+00  -0.000000E+00  -0.000000E+00  -0.000000E+00  -0.000000E+00  -0.000000E+00  -0.000000E+00  -0.000000E+00  -0.000000E+00  -0.000000E+00  -0.000000E+00  -0.000000E+00  -0.000000E+00  -0.000000E+00  -0.000000E+00  -0.000000E+00  -0.000000E+00  -0.000000E+00  -0.000000E+00  -0.000000E+00  -0.000000E+00  -0.000000E+00  -0.000000E+00  -0.000000E+00  -0.000000E+00  -0.000000E+00  -0.000000E+00  -0.000000E+00  -0.000000E+00  -0.000000E+00  -0.000000E+00  -0.000000E+00  -0.000000E+00  -0.000000E+00  -0.000000E+00  -0.000000E+00  -0.000000E+00  -0.000000E+00  -0.000000E+00  -0.000000E+00  -0.000000E+00  -0.000000E+00  -0.000000E+00  -0.000000E+00  -0.000000E+00  -0.000000E+00  -0.000000E+00  -0.000000E+00  -0.000000E+00  -0.000000E+00  -0.000000E+00  -0.000000E+00  -0.000000E+00  -0.000000E+00  -0.000000E+00  -0.000000E+00  -0.000000E+00  -0.000000E+00  -0.000000E+00  -0.000000E+00  -0.000000E+00  -0.000000E+00  -0.000000E+00  -0.000000E+00  -0.000000E+00  -0.000000E+00  -0.000000E+00  -0.000000E+00  -0.000000E+00  -0.000000E+00  -0.000000E+00  -0.000000E+00  -0.000000E+00  -0.000000E+00  -0.000000E+00  -0.000000E+00  -0.000000E+00  -0.000000E+00  -0.000000E+00  -0.000000E+00  -0.000000E+00  -0.000000E+00  -0.000000E+00  -0.000000E+00  -0.000000E+00  -0.000000E+00  -0.000000E+00  -0.000000E+00  -0.000000E+00  -0.000000E+00  -0.000000E+00  -0.000000E+00  -0.000000E+00  -0.000000E+00  -0.000000E+00  -0.000000E+00  -0.000000E+00  -0.000000E+00  -0.000000E+00  -0.000000E+00  -0.000000E+00  -0.000000E+00  -0.000000E+00
  -0.000000E+00  -0.000000E+00  -0.000000E+00  -0.000000E+00  -0.000000E+00  -0.000000E+00  -0.000000E+00  -0.000000E+00  -0.000000E+00  -0.000000E+00  -0.000000E+00  -0.000000E+00  -0.000000E+00  -0.000000E+00  -0.000000E+00  -0.000000E+00  -0.000000E+00  -0.000000E+00  -0.000000E+00  -0.000000E+00  -0.000000E+00  -0.000000E+00  -0.000000E+00  -0.000000E+00  -0.000000E+00  -0.000000E+00  -0.000000E+00  -0.000000E+00  -0.000000E+00  -0.000000E+00  -0.000000E+00  -0.000000E+00  -0.000000E+00  -0.000000E+00  -0.000000E+00  -0.000000E+00  -0.000000E+00  -0.000000E+00  -0.000000E+00  -0.000000E+00  -0.000000E+00  -0.000000E+00  -0.000000E+00  -0.000000E+00  -0.000000E+00  -0.000000E+00  -0.000000E+00  -0.000000E+00  -0.000000E+00  -0.000000E+00  -0.000000E+00  -0.000000E+00  -0.000000E+00  -0.000000E+00  -0.000000E+00  -0.000000E+00  -0.000000E+00  -0.000000E+00  -0.000000E+00  -0.000000E+00  -0.000000E+00  -0.000000E+00  -0.000000E+00  -0.000000E+00  -0.000000E+00  -0.000000E+00  -0.000000E+00  -0.000000E+00  -0.000000E+00  -0.000000E+00  -0.000000E+00  -0.000000E+00  -0.000000E+00  -0.000000E+00  -0.000000E+00  -0.000000E+00  -0.000000E+00  -0.000000E+00  -0.000000E+00  -0.000000E+00  -0.000000E+00  -0.000000E+00  -0.000000E+00  -0.000000E+00  -0.000000E+00  -0.000000E+00  -0.000000E+00  -0.000000E+00  -0.000000E+00  -0.000000E+00  -0.000000E+00  -0.000000E+00  -0.000000E+00  -0.000000E+00  -0.000000E+00  -0.000000E+00  -0.000000E+00  -0.000000E+00  -0.000000E+00  -0.000000E+00  -0.000000E+00  -0.000000E+00  -0.000000E+00  -0.000000E+00  -0.000000E+00  -0.000000E+00  -0.000000E+00  -0.000000E+00  -0.000000E+00  -0.000000E+00  -0.000000E+00  -0.000000E+00  -0.000000E+00  -0.000000E+00  -0.000000E+00  -0.000000E+00  -0.000000E+00  -0.000000E+00  -0.000000E+00  -0.000000E+00  -0.000000E+00  -0.000000E+00  -0.000000E+00  -0.000000E+00  -0.000000E+00  -0.000000E+00  -0.000000E+00  -0.000000E+00  -0.000000E+00  -0.000000E+00  -0.000000E+00  -0.000000E+00  -0.000000E+00  -0.000000E+00  -0.000000E+00  -0.000000E+00  -0.000000E+00  -0.000000E+00  -0.000000E+00  -0.000000E+00  -0.000000E+00  -0.000000E+00  -0.000000E+00  -0.000000E+00  -0.000000E+00  -0.000000E+00  -0.000000E+00  -0.000000E+00  -0.000000E+00  -0.000000E+00  -0.000000E+00  -0.000000E+00  -0.000000E+00  -0.000000E+00  -0.000000E+00  -0.000000E+00  -0.000000E+00  -0.000000E+00  -0.000000E+00  -0.000000E+00  -0.000000E+00  -0.000000E+00  -0.000000E+00  -0.000000E+00  -0.000000E+00  -0.000000E+00  -0.000000E+00  -0.000000E+00  -0.000000E+00  -0.000000E+00  -0.000000E+00  -0.000000E+00  -0.000000E+00  -0.000000E+00  -0.000000E+00  -0.000000E+00  -0.000000E+00  -0.000000E+00  -0.000000E+00  -0.000000E+00  -0.000000E+00  -0.000000E+00
  -0.000000E+00  -0.000000E+00  -0.000000E+00  -0.000000E+00  -0.000000E+00  -0.000000E+00  -0.000000E+00  -0.000000E+00  -0.000000E+00  -0.000000E+00  -0.000000E+00  -0.000000E+00  -0.000000E+00  -0.000000E+00  -0.000000E+00  -0.000000E+00  -0.000000E+00  -0.000000E+00  -0.000000E+00  -0.000000E+00  -0.000000E+00  -0.000000E+00  -0.000000E+00  -0.000000E+00  -0.000000E+00  -0.000000E+00  -0.000000E+00  -0.000000E+00  -0.000000E+00  -0.000000E+00  -0.000000E+00  -0.000000E+00  -0.000000E+00  -0.000000E+00  -0.000000E+00  -0.000000E+00  -0.000000E+00  -0.000000E+00  -0.000000E+00  -0.000000E+00  -0.000000E+00  -0.000000E+00  -0.000000E+00  -0.000000E+00  -0.000000E+00  -0.000000E+00  -0.000000E+00  -0.000000E+00  -0.000000E+00  -0.000000E+00  -0.000000E+00  -0.000000E+00  -0.000000E+00  -0.000000E+00  -0.000000E+00  -0.000000E+00  -0.000000E+00  -0.000000E+00  -0.000000E+00  -0.000000E+00  -0.000000E+00  -0.000000E+00  -0.000000E+00  -0.000000E+00  -0.000000E+00  -0.000000E+00  -0.000000E+00  -0.000000E+00  -0.000000E+00  -0.000000E+00  -0.000000E+00  -0.000000E+00  -0.000000E+00  -0.000000E+00  -0.000000E+00  -0.000000E+00  -0.000000E+00  -0.000000E+00  -0.000000E+00  -0.000000E+00  -0.000000E+00  -0.000000E+00  -0.000000E+00  -0.000000E+00  -0.000000E+00  -0.000000E+00  -0.000000E+00  -0.000000E+00  -0.000000E+00  -0.000000E+00  -0.000000E+00  -0.000000E+00  -0.000000E+00  -0.000000E+00  -0.000000E+00  -0.000000E+00  -0.000000E+00  -0.000000E+00  -0.000000E+00  -0.000000E+00  -0.000000E+00  -0.000000E+00  -0.000000E+00  -0.000000E+00  -0.000000E+00  -0.000000E+00  -0.000000E+00  -0.000000E+00  -0.000000E+00  -0.000000E+00  -0.000000E+00  -0.000000E+00  -0.000000E+00  -0.000000E+00  -0.000000E+00  -0.000000E+00  -0.000000E+00  -0.000000E+00  -0.000000E+00  -0.000000E+00  -0.000000E+00  -0.000000E+00  -0.000000E+00  -0.000000E+00  -0.000000E+00  -0.000000E+00  -0.000000E+00  -0.000000E+00  -0.000000E+00  -0.000000E+00  -0.000000E+00  -0.000000E+00  -0.000000E+00  -0.000000E+00  -0.000000E+00  -0.000000E+00  -0.000000E+00  -0.000000E+00  -0.000000E+00  -0.000000E+00  -0.000000E+00  -0.000000E+00  -0.000000E+00  -0.000000E+00  -0.000000E+00  -0.000000E+00  -0.000000E+00  -0.000000E+00  -0.000000E+00  -0.000000E+00  -0.000000E+00  -0.000000E+00  -0.000000E+00  -0.000000E+00  -0.000000E+00  -0.000000E+00  -0.000000E+00  -0.000000E+00  -0.000000E+00  -0.000000E+00  -0.000000E+00  -0.000000E+00  -0.000000E+00  -0.000000E+00  -0.000000E+00  -0.000000E+00  -0.000000E+00  -0.000000E+00  -0.000000E+00  -0.000000E+00  -0.000000E+00  -0.000000E+00  -0.000000E+00  -0.000000E+00  -0.000000E+00  -0.000000E+00  -0.000000E+00  -0.000000E+00  -0.000000E+00  -0.000000E+00  -0.000000E+00  -0.000000E+00
  -0.000000E+00  -0.000000E+00  -0.000000E+00  -0.000000E+00  -0.000000E+00  -0.000000E+00  -0.000000E+00  -0.000000E+00  -0.000000E+00  -0.000000E+00  -0.000000E+00  -0.000000E+00  -0.000000E+00  -0.000000E+00  -0.000000E+00  -0.000000E+00  -0.000000E+00  -0.000000E+00  -0.000000E+00  -0.000000E+00  -0.000000E+00  -0.000000E+00  -0.000000E+00  -0.000000E+00  -0.000000E+00  -0.000000E+00  -0.000000E+00  -0.000000E+00  -0.000000E+00  -0.000000E+00  -0.000000E+00  -0.000000E+00  -0.000000E+00  -0.000000E+00  -0.000000E+00  -0.000000E+00  -0.000000E+00  -0.000000E+00  -0.000000E+00  -0.000000E+00  -0.000000E+00  -0.000000E+00  -0.000000E+00  -0.000000E+00  -0.000000E+00  -0.000000E+00  -0.000000E+00  -0.000000E+00  -0.000000E+00  -0.000000E+00  -0.000000E+00  -0.000000E+00  -0.000000E+00  -0.000000E+00  -0.000000E+00  -0.000000E+00  -0.000000E+00  -0.000000E+00  -0.000000E+00  -0.000000E+00  -0.000000E+00  -0.000000E+00  -0.000000E+00  -0.000000E+00  -0.000000E+00  -0.000000E+00  -0.000000E+00  -0.000000E+00  -0.000000E+00  -0.000000E+00  -0.000000E+00  -0.000000E+00  -0.000000E+00  -0.000000E+00  -0.000000E+00  -0.000000E+00  -0.000000E+00  -0.000000E+00  -0.000000E+00  -0.000000E+00  -0.000000E+00  -0.000000E+00  -0.000000E+00  -0.000000E+00  -0.000000E+00  -0.000000E+00  -0.000000E+00  -0.000000E+00  -0.000000E+00  -0.000000E+00  -0.000000E+00  -0.000000E+00  -0.000000E+00  -0.000000E+00  -0.000000E+00  -0.000000E+00  -0.000000E+00  -0.000000E+00  -0.000000E+00  -0.000000E+00  -0.000000E+00  -0.000000E+00  -0.000000E+00  -0.000000E+00  -0.000000E+00  -0.000000E+00  -0.000000E+00  -0.000000E+00  -0.000000E+00  -0.000000E+00  -0.000000E+00  -0.000000E+00  -0.000000E+00  -0.000000E+00  -0.000000E+00  -0.000000E+00  -0.000000E+00  -0.000000E+00  -0.000000E+00  -0.000000E+00  -0.000000E+00  -0.000000E+00  -0.000000E+00  -0.000000E+00  -0.000000E+00  -0.000000E+00  -0.000000E+00  -0.000000E+00  -0.000000E+00  -0.000000E+00  -0.000000E+00  -0.000000E+00  -0.000000E+00  -0.000000E+00  -0.000000E+00  -0.000000E+00  -0.000000E+00  -0.000000E+00  -0.000000E+00  -0.000000E+00  -0.000000E+00  -0.000000E+00  -0.000000E+00  -0.000000E+00  -0.000000E+00  -0.000000E+00  -0.000000E+00  -0.000000E+00  -0.000000E+00  -0.000000E+00  -0.000000E+00  -0.000000E+00  -0.000000E+00  -0.000000E+00  -0.000000E+00  -0.000000E+00  -0.000000E+00  -0.000000E+00  -0.000000E+00  -0.000000E+00  -0.000000E+00  -0.000000E+00  -0.000000E+00  -0.000000E+00  -0.000000E+00  -0.000000E+00  -0.000000E+00  -0.000000E+00  -0.000000E+00  -0.000000E+00  -0.000000E+00  -0.000000E+00  -0.000000E+00  -0.000000E+00  -0.000000E+00  -0.000000E+00  -0.000000E+00  -0.000000E+00  -0.000000E+00  -0.000000E+00  -0.000000E+00  -0.000000E+00
  -0.000000E+00  -0.000000E+00  -0.000000E+00  -0.000000E+00  -0.000000E+00  -0.000000E+00  -0.000000E+00  -0.000000E+00  -0.000000E+00  -0.000000E+00  -0.000000E+00  -0.000000E+00  -0.000000E+00  -0.000000E+00  -0.000000E+00  -0.000000E+00  -0.000000E+00  -0.000000E+00  -0.000000E+00  -0.000000E+00  -0.000000E+00  -0.000000E+00  -0.000000E+00  -0.000000E+00  -0.000000E+00  -0.000000E+00  -0.000000E+00  -0.000000E+00  -0.000000E+00  -0.000000E+00  -0.000000E+00  -0.000000E+00  -0.000000E+00  -0.000000E+00  -0.000000E+00  -0.000000E+00  -0.000000E+00  -0.000000E+00  -0.000000E+00  -0.000000E+00  -0.000000E+00  -0.000000E+00  -0.000000E+00  -0.000000E+00  -0.000000E+00  -0.000000E+00  -0.000000E+00  -0.000000E+00  -0.000000E+00  -0.000000E+00  -0.000000E+00  -0.000000E+00  -0.000000E+00  -0.000000E+00  -0.000000E+00  -0.000000E+00  -0.000000E+00  -0.000000E+00  -0.000000E+00  -0.000000E+00  -0.000000E+00  -0.000000E+00  -0.000000E+00  -0.000000E+00  -0.000000E+00  -0.000000E+00  -0.000000E+00  -0.000000E+00  -0.000000E+00  -0.000000E+00  -0.000000E+00  -0.000000E+00  -0.000000E+00  -0.000000E+00  -0.000000E+00  -0.000000E+00  -0.000000E+00  -0.000000E+00  -0.000000E+00  -0.000000E+00  -0.000000E+00  -0.000000E+00  -0.000000E+00  -0.000000E+00  -0.000000E+00  -0.000000E+00  -0.000000E+00  -0.000000E+00  -0.000000E+00  -0.000000E+00  -0.000000E+00  -0.000000E+00  -0.000000E+00  -0.000000E+00  -0.000000E+00  -0.000000E+00  -0.000000E+00  -0.000000E+00  -0.000000E+00  -0.000000E+00  -0.000000E+00  -0.000000E+00  -0.000000E+00  -0.000000E+00  -0.000000E+00  -0.000000E+00  -0.000000E+00  -0.000000E+00  -0.000000E+00  -0.000000E+00  -0.000000E+00  -0.000000E+00  -0.000000E+00  -0.000000E+00  -0.000000E+00  -0.000000E+00  -0.000000E+00  -0.000000E+00  -0.000000E+00  -0.000000E+00  -0.000000E+00  -0.000000E+00  -0.000000E+00  -0.000000E+00  -0.000000E+00  -0.000000E+00  -0.000000E+00  -0.000000E+00  -0.000000E+00  -0.000000E+00  -0.000000E+00  -0.000000E+00  -0.000000E+00  -0.000000E+00  -0.000000E+00  -0.000000E+00  -0.000000E+00  -0.000000E+00  -0.000000E+00  -0.000000E+00  -0.000000E+00  -0.000000E+00  -0.000000E+00  -0.000000E+00  -0.000000E+00  -0.000000E+00  -0.000000E+00  -0.000000E+00  -0.000000E+00  -0.000000E+00  -0.000000E+00  -0.000000E+00  -0.000000E+00  -0.000000E+00  -0.000000E+00  -0.000000E+00  -0.000000E+00  -0.000000E+00  -0.000000E+00  -0.000000E+00  -0.000000E+00  -0.000000E+00  -0.000000E+00  -0.000000E+00  -0.000000E+00  -0.000000E+00  -0.000000E+00  -0.000000E+00  -0.000000E+00  -0.000000E+00  -0.000000E+00  -0.000000E+00  -0.000000E+00  -0.000000E+00  -0.000000E+00  -0.000000E+00  -0.000000E+00  -0.000000E+00  -0.000000E+00  -0.000000E+00  -0.000000E+00  -0.000000E+00
  -0.000000E+00  -0.000000E+00  -0.000000E+00  -0.000000E+00  -0.000000E+00  -0.000000E+00  -0.000000E+00  -0.000000E+00  -0.000000E+00  -0.000000E+00  -0.000000E+00  -0.000000E+00  -0.000000E+00  -0.000000E+00  -0.000000E+00  -0.000000E+00  -0.000000E+00  -0.000000E+00  -0.000000E+00  -0.000000E+00  -0.000000E+00  -0.000000E+00  -0.000000E+00  -0.000000E+00  -0.000000E+00  -0.000000E+00  -0.000000E+00  -0.000000E+00  -0.000000E+00  -0.000000E+00  -0.000000E+00  -0.000000E+00  -0.000000E+00  -0.000000E+00  -0.000000E+00  -0.000000E+00  -0.000000E+00  -0.000000E+00  -0.000000E+00  -0.000000E+00  -0.000000E+00  -0.000000E+00  -0.000000E+00  -0.000000E+00  -0.000000E+00  -0.000000E+00  -0.000000E+00  -0.000000E+00  -0.000000E+00  -0.000000E+00  -0.000000E+00  -0.000000E+00  -0.000000E+00  -0.000000E+00  -0.000000E+00  -0.000000E+00  -0.000000E+00  -0.000000E+00  -0.000000E+00  -0.000000E+00  -0.000000E+00  -0.000000E+00  -0.000000E+00  -0.000000E+00  -0.000000E+00  -0.000000E+00  -0.000000E+00  -0.000000E+00  -0.000000E+00  -0.000000E+00  -0.000000E+00  -0.000000E+00  -0.000000E+00  -0.000000E+00  -0.000000E+00  -0.000000E+00  -0.000000E+00  -0.000000E+00  -0.000000E+00  -0.000000E+00  -0.000000E+00  -0.000000E+00  -0.000000E+00  -0.000000E+00  -0.000000E+00  -0.000000E+00  -0.000000E+00  -0.000000E+00  -0.000000E+00  -0.000000E+00  -0.000000E+00  -0.000000E+00  -0.000000E+00  -0.000000E+00  -0.000000E+00  -0.000000E+00  -0.000000E+00  -0.000000E+00  -0.000000E+00  -0.000000E+00  -0.000000E+00  -0.000000E+00  -0.000000E+00  -0.000000E+00  -0.000000E+00  -0.000000E+00  -0.000000E+00  -0.000000E+00  -0.000000E+00  -0.000000E+00  -0.000000E+00  -0.000000E+00  -0.000000E+00  -0.000000E+00  -0.000000E+00  -0.000000E+00  -0.000000E+00  -0.000000E+00  -0.000000E+00  -0.000000E+00  -0.000000E+00  -0.000000E+00  -0.000000E+00  -0.000000E+00  -0.000000E+00  -0.000000E+00  -0.000000E+00  -0.000000E+00  -0.000000E+00  -0.000000E+00  -0.000000E+00  -0.000000E+00  -0.000000E+00  -0.000000E+00  -0.000000E+00  -0.000000E+00  -0.000000E+00  -0.000000E+00  -0.000000E+00  -0.000000E+00  -0.000000E+00  -0.000000E+00  -0.000000E+00  -0.000000E+00  -0.000000E+00  -0.000000E+00  -0.000000E+00  -0.000000E+00  -0.000000E+00  -0.000000E+00  -0.000000E+00  -0.000000E+00  -0.000000E+00  -0.000000E+00  -0.000000E+00  -0.000000E+00  -0.000000E+00  -0.000000E+00  -0.000000E+00  -0.000000E+00  -0.000000E+00  -0.000000E+00  -0.000000E+00  -0.000000E+00  -0.000000E+00  -0.000000E+00  -0.000000E+00  -0.000000E+00  -0.000000E+00  -0.000000E+00  -0.000000E+00  -0.000000E+00  -0.000000E+00  -0.000000E+00  -0.000000E+00  -0.000000E+00  -0.000000E+00  -0.000000E+00  -0.000000E+00  -0.000000E+00  -0.000000E+00  -0.000000E+00
  -0.000000E+00  -0.000000E+00  -0.000000E+00  -0.000000E+00  -0.000000E+00  -0.000000E+00  -0.000000E+00  -0.000000E+00  -0.000000E+00  -0.000000E+00  -0.000000E+00  -0.000000E+00  -0.000000E+00  -0.000000E+00  -0.000000E+00  -0.000000E+00  -0.000000E+00  -0.000000E+00  -0.000000E+00  -0.000000E+00  -0.000000E+00  -0.000000E+00  -0.000000E+00  -0.000000E+00  -0.000000E+00  -0.000000E+00  -0.000000E+00  -0.000000E+00  -0.000000E+00  -0.000000E+00  -0.000000E+00  -0.000000E+00  -0.000000E+00  -0.000000E+00  -0.000000E+00  -0.000000E+00  -0.000000E+00  -0.000000E+00  -0.000000E+00  -0.000000E+00  -0.000000E+00  -0.000000E+00  -0.000000E+00  -0.000000E+00  -0.000000E+00  -0.000000E+00  -0.000000E+00  -0.000000E+00  -0.000000E+00  -0.000000E+00  -0.000000E+00  -0.000000E+00  -0.000000E+00  -0.000000E+00  -0.000000E+00  -0.000000E+00  -0.000000E+00  -0.000000E+00  -0.000000E+00  -0.000000E+00  -0.000000E+00  -0.000000E+00  -0.000000E+00  -0.000000E+00  -0.000000E+00  -0.000000E+00  -0.000000E+00  -0.000000E+00  -0.000000E+00  -0.000000E+00  -0.000000E+00  -0.000000E+00  -0.000000E+00  -0.000000E+00  -0.000000E+00  -0.000000E+00  -0.000000E+00  -0.000000E+00  -0.000000E+00  -0.000000E+00  -0.000000E+00  -0.000000E+00  -0.000000E+00  -0.000000E+00  -0.000000E+00  -0.000000E+00  -0.000000E+00  -0.000000E+00  -0.000000E+00  -0.000000E+00  -0.000000E+00  -0.000000E+00  -0.000000E+00  -0.000000E+00  -0.000000E+00  -0.000000E+00  -0.000000E+00  -0.000000E+00  -0.000000E+00  -0.000000E+00  -0.000000E+00  -0.000000E+00  -0.000000E+00  -0.000000E+00  -0.000000E+00  -0.000000E+00  -0.000000E+00  -0.000000E+00  -0.000000E+00  -0.000000E+00  -0.000000E+00  -0.000000E+00  -0.000000E+00  -0.000000E+00  -0.000000E+00  -0.000000E+00  -0.000000E+00  -0.000000E+00  -0.000000E+00  -0.000000E+00  -0.000000E+00  -0.000000E+00  -0.000000E+00  -0.000000E+00  -0.000000E+00  -0.000000E+00  -0.000000E+00  -0.000000E+00  -0.000000E+00  -0.000000E+00  -0.000000E+00  -0.000000E+00  -0.000000E+00  -0.000000E+00  -0.000000E+00  -0.000000E+00  -0.000000E+00  -0.000000E+00  -0.000000E+00  -0.000000E+00  -0.000000E+00  -0.000000E+00  -0.000000E+00  -0.000000E+00  -0.000000E+00  -0.000000E+00  -0.000000E+00  -0.000000E+00  -0.000000E+00  -0.000000E+00  -0.000000E+00  -0.000000E+00  -0.000000E+00  -0.000000E+00  -0.000000E+00  -0.000000E+00  -0.000000E+00  -0.000000E+00  -0.000000E+00  -0.000000E+00  -0.000000E+00  -0.000000E+00  -0.000000E+00  -0.000000E+00  -0.000000E+00  -0.000000E+00  -0.000000E+00  -0.000000E+00  -0.000000E+00  -0.000000E+00  -0.000000E+00  -0.000000E+00  -0.000000E+00  -0.000000E+00  -0.000000E+00  -0.000000E+00  -0.000000E+00  -0.000000E+00  -0.000000E+00  -0.000000E+00  -0.000000E+00  -0.000000E+00
  -0.000000E+00  -0.000000E+00  -0.000000E+00  -0.000000E+00  -0.000000E+00  -0.000000E+00  -0.000000E+00  -0.000000E+00  -0.000000E+00  -0.000000E+00  -0.000000E+00  -0.000000E+00  -0.000000E+00  -0.000000E+00  -0.000000E+00  -0.000000E+00  -0.000000E+00  -0.000000E+00  -0.000000E+00  -0.000000E+00  -0.000000E+00  -0.000000E+00  -0.000000E+00  -0.000000E+00  -0.000000E+00  -0.000000E+00  -0.000000E+00  -0.000000E+00  -0.000000E+00  -0.000000E+00  -0.000000E+00  -0.000000E+00  -0.000000E+00  -0.000000E+00  -0.000000E+00  -0.000000E+00  -0.000000E+00  -0.000000E+00  -0.000000E+00  -0.000000E+00  -0.000000E+00  -0.000000E+00  -0.000000E+00  -0.000000E+00  -0.000000E+00  -0.000000E+00  -0.000000E+00  -0.000000E+00  -0.000000E+00  -0.000000E+00  -0.000000E+00  -0.000000E+00  -0.000000E+00  -0.000000E+00  -0.000000E+00  -0.000000E+00  -0.000000E+00  -0.000000E+00  -0.000000E+00  -0.000000E+00  -0.000000E+00  -0.000000E+00  -0.000000E+00  -0.000000E+00  -0.000000E+00  -0.000000E+00  -0.000000E+00  -0.000000E+00  -0.000000E+00  -0.000000E+00  -0.000000E+00  -0.000000E+00  -0.000000E+00  -0.000000E+00  -0.000000E+00  -0.000000E+00  -0.000000E+00  -0.000000E+00  -0.000000E+00  -0.000000E+00  -0.000000E+00  -0.000000E+00  -0.000000E+00  -0.000000E+00  -0.000000E+00  -0.000000E+00  -0.000000E+00  -0.000000E+00  -0.000000E+00  -0.000000E+00  -0.000000E+00  -0.000000E+00  -0.000000E+00  -0.000000E+00  -0.000000E+00  -0.000000E+00  -0.000000E+00  -0.000000E+00  -0.000000E+00  -0.000000E+00  -0.000000E+00  -0.000000E+00  -0.000000E+00  -0.000000E+00  -0.000000E+00  -0.000000E+00  -0.000000E+00  -0.000000E+00  -0.000000E+00  -0.000000E+00  -0.000000E+00  -0.000000E+00  -0.000000E+00  -0.000000E+00  -0.000000E+00  -0.000000E+00  -0.000000E+00  -0.000000E+00  -0.000000E+00  -0.000000E+00  -0.000000E+00  -0.000000E+00  -0.000000E+00  -0.000000E+00  -0.000000E+00  -0.000000E+00  -0.000000E+00  -0.000000E+00  -0.000000E+00  -0.000000E+00  -0.000000E+00  -0.000000E+00  -0.000000E+00  -0.000000E+00  -0.000000E+00  -0.000000E+00  -0.000000E+00  -0.000000E+00  -0.000000E+00  -0.000000E+00  -0.000000E+00  -0.000000E+00  -0.000000E+00  -0.000000E+00  -0.000000E+00  -0.000000E+00  -0.000000E+00  -0.000000E+00  -0.000000E+00  -0.000000E+00  -0.000000E+00  -0.000000E+00  -0.000000E+00  -0.000000E+00  -0.000000E+00  -0.000000E+00  -0.000000E+00  -0.000000E+00  -0.000000E+00  -0.000000E+00  -0.000000E+00  -0.000000E+00  -0.000000E+00  -0.000000E+00  -0.000000E+00  -0.000000E+00  -0.000000E+00  -0.000000E+00  -0.000000E+00  -0.000000E+00  -0.000000E+00  -0.000000E+00  -0.000000E+00  -0.000000E+00  -0.000000E+00  -0.000000E+00  -0.000000E+00  -0.000000E+00  -0.000000E+00  -0.000000E+00  -0.000000E+00  -0.000000E+00