
MODPATH - Version 6.0.01  August 24, 2012                 
U.S. GEOLOGICAL SURVEY PARTICLE TRACKING MODEL FOR MODFLOW

Simulation File: incised.mpsim                                                                                                                                                                                           
 ## MPSIM for Modpath, generated by Flopy.
 ##
  
--------------------------------------------
Allocating and reading data for grid  1
--------------------------------------------

 OPENING incised.mpbas
 FILE TYPE:MPBAS   UNIT   86   STATUS:OLD    
 FORMAT:FORMATTED              ACCESS:SEQUENTIAL          

 OPENING incised.dis
 FILE TYPE:DIS   UNIT   11   STATUS:OLD    
 FORMAT:FORMATTED              ACCESS:SEQUENTIAL          

 OPENING incised.hds
 FILE TYPE:HEAD   UNIT   88   STATUS:OLD    
 FORMAT:UNFORMATTED            ACCESS:STREAM              

 OPENING incised.cbc
 FILE TYPE:BUDGET   UNIT   89   STATUS:OLD    
 FORMAT:UNFORMATTED            ACCESS:STREAM              

 DISCRETIZATION INPUT DATA READ FROM UNIT   11
 # DIS package for MODFLOW-NWT generated by Flopy 3.3.5
    3 LAYERS        91 ROWS       182 COLUMNS
    1 STRESS PERIOD(S) IN SIMULATION
 MODEL TIME UNIT IS DAYS
 MODEL LENGTH UNIT IS METERS
  Confining bed flag for each layer:
   0   0   0

                     DELR =   43.5165    

                     DELC =   43.5165    

 TOP ELEVATION OF LAYER 1 =   200.000    



             MODEL LAYER BOTTOM EL. FOR LAYER   1
 READING ON UNIT   11 WITH FORMAT: (182E15.6)          



             MODEL LAYER BOTTOM EL. FOR LAYER   2
 READING ON UNIT   11 WITH FORMAT: (182E15.6)          



             MODEL LAYER BOTTOM EL. FOR LAYER   3
 READING ON UNIT   11 WITH FORMAT: (182E15.6)          


 STRESS PERIOD     LENGTH       TIME STEPS     MULTIPLIER FOR DELT    SS FLAG
 ----------------------------------------------------------------------------
        1        1.0000000E+08      1                    1.000         SS

 STEADY-STATE SIMULATION
 
 ## MPBAS for Modpath, generated by Flopy.                                       
 ##                                                                              

 AQUIFER HEAD IS SET TO -9999.0     AT ALL NO-FLOW NODES (IBOUND=0).
 AQUIFER HEAD IS SET TO -1000.0     AT ALL DRY NODES.
 
 
 LAYER TYPE(LAYTYP)
  1 1 1



                     BOUNDARY ARRAY FOR LAYER   1
 READING ON UNIT   86 WITH FORMAT:            (182I10) 



                     BOUNDARY ARRAY FOR LAYER   2
 READING ON UNIT   86 WITH FORMAT:            (182I10) 



                     BOUNDARY ARRAY FOR LAYER   3
 READING ON UNIT   86 WITH FORMAT:            (182I10) 



                           POROSITY FOR LAYER   1
 READING ON UNIT   86 WITH FORMAT:          (182E15.6) 



                           POROSITY FOR LAYER   2
 READING ON UNIT   86 WITH FORMAT:          (182E15.6) 



                           POROSITY FOR LAYER   3
 READING ON UNIT   86 WITH FORMAT:          (182E15.6) 
 
 CHECKING THE HEAD FILE FOR GRID   1
 Single Precision Binary Head file
 READ HEAD FOR PERIOD     1 STEP     1  PERTIM =   1.000000E+08  TOTIM =   1.000000E+08
 THE HEAD FILE FOR GRID   1 IS COMPLETE.
 
 CHECKING AND INDEXING BUDGET FILE FOR GRID   1
 Index position =          1
 READ FLOW PACKAGE BUDGET DATA FOR STRESS PERIOD    1 , TIME STEP    1 ...
 Single Precision Binary Budget file
 Reading    CONSTANT HEAD for Period    1   Time Step    1
 Reading FLOW RIGHT FACE  for Period    1   Time Step    1
 Reading FLOW FRONT FACE  for Period    1   Time Step    1
 Reading FLOW LOWER FACE  for Period    1   Time Step    1
   FLOW RATES BETWEEN CELLS HAVE BEEN READ
 THE BUDGET INDEX FOR GRID   1 WAS SUCCESSFULLY CREATED.
 
PATHLINE ANALYSIS (ISIMTYPE = 2)
FORWARD TRACKING (ITRACKDIR =  1)
LET PARTICLES PASS THROUGH WEAK SINK CELLS (ISINK = 1)
LET PARTICLES PASS THROUGH WEAK SOURCE CELLS FOR BACKTRACKING SIMULATIONS (ISOURCE = 1)
DO NOT SAVE ADVECTIVE OBSERVATIONS FOR TIME SERIES SIMULATIONS (IADVOBS =  1)
 
PARTICLE OUTPUT FILES:
ENDPOINT FILE:  incised.mpend                                                                                                                                                                                           
PATHLINE FILE:  incised.mppth                                                                                                                                                                                           
 
REFERENCE TIME =   0.0000000E+00
EXTEND INITIAL OR FINAL STEADY-STATE TIMESTEP AND CONTINUE TRACKING (ISTOPT =  2)
 Particle starting locations will be read from file:                                                                                                                                                     incised.loc                                                                                                                                                                                             
   Starting locations file format option (ISLFOPT) =                                                                                                                                                        1
 
TOTAL NUMBER OF PARTICLES FOR ALL GROUPS =        992
 
DO NOT PERFORM BUDGET CHECKS (IBDOPT =  1)
 
THE ZONE VALUE FOR ALL CELLS = 1
 
NO RETARDATION. FACTOR = 1 FOR ALL CELLS
 
 
 Run particle tracking simulation ...
 
 ----------------------------------------------------------------------------------------------
Processing Time Step     1 Period     1.  Time =  1.00000E+08                                                                         (Cumulative step =      1)
 ----------------------------------------------------------------------------------------------
 PROCESSING HEAD AND BUDGET DATA FOR GRID   1
 READ HEAD FOR PERIOD     1 STEP     1  PERTIM =   1.000000E+08  TOTIM =   1.000000E+08
 UPDATE IBOUND FOR NO-FLOW AND DRY CELLS.
 PROCESS FLOW PACKAGE BUDGET DATA FOR STRESS PERIOD    1 , TIME STEP    1 ...
 Reading    CONSTANT HEAD for Period    1   Time Step    1
 Reading FLOW RIGHT FACE  for Period    1   Time Step    1
 Reading FLOW FRONT FACE  for Period    1   Time Step    1
 Reading FLOW LOWER FACE  for Period    1   Time Step    1
 
Particle summary:
-----------------
         0 particles remain active
       992 particles terminated in zone    1
         0 particles were stranded
 
Default real number precision =          6
Heads input from single-precision head file.
Flows input from single-precision compact budget file.
 
End of MODPATH simulation. Normal termination.
