# Name file for MODFLOW-NWT, generated by Flopy version 3.3.5.
#xll:0.0; yll:0.0; rotation:0.0; units:meters; lenuni:2; start_datetime:1-1-1970
LIST               2  incised.list
DIS               11  incised.dis
UPW               31  incised.upw
BAS6              13  incised.bas
CHD               24  incised.chd
NWT               32  incised.nwt
OC                14  incised.oc
LMT6              30  incised.lmt6
DATA(BINARY)      53  incised.cbc REPLACE
DATA(BINARY)      51  incised.hds REPLACE
DATA(BINARY)      52  incised.ddn REPLACE
