# CHD package for MODFLOW-NWT generated by Flopy 3.3.5
       364
       364         0 # stress period 1
         2         1         1           138.0           138.0
         2         2         1           138.0           138.0
         2         3         1           138.0           138.0
         2         4         1           138.0           138.0
         2         5         1           138.0           138.0
         2         6         1           138.0           138.0
         2         7         1           138.0           138.0
         2         8         1           138.0           138.0
         2         9         1           138.0           138.0
         2        10         1           138.0           138.0
         2        11         1           138.0           138.0
         2        12         1           138.0           138.0
         2        13         1           138.0           138.0
         2        14         1           138.0           138.0
         2        15         1           138.0           138.0
         2        16         1           138.0           138.0
         2        17         1           138.0           138.0
         2        18         1           138.0           138.0
         2        19         1           138.0           138.0
         2        20         1           138.0           138.0
         2        21         1           138.0           138.0
         2        22         1           138.0           138.0
         2        23         1           138.0           138.0
         2        24         1           138.0           138.0
         2        25         1           138.0           138.0
         2        26         1           138.0           138.0
         2        27         1           138.0           138.0
         2        28         1           138.0           138.0
         2        29         1           138.0           138.0
         2        30         1           138.0           138.0
         2        31         1           138.0           138.0
         2        32         1           138.0           138.0
         2        33         1           138.0           138.0
         2        34         1           138.0           138.0
         2        35         1           138.0           138.0
         2        36         1           138.0           138.0
         2        37         1           138.0           138.0
         2        38         1           138.0           138.0
         2        39         1           138.0           138.0
         2        40         1           138.0           138.0
         2        41         1           138.0           138.0
         2        42         1           138.0           138.0
         2        43         1           138.0           138.0
         2        44         1           138.0           138.0
         2        45         1           138.0           138.0
         2        46         1           138.0           138.0
         2        47         1           138.0           138.0
         2        48         1           138.0           138.0
         2        49         1           138.0           138.0
         2        50         1           138.0           138.0
         2        51         1           138.0           138.0
         2        52         1           138.0           138.0
         2        53         1           138.0           138.0
         2        54         1           138.0           138.0
         2        55         1           138.0           138.0
         2        56         1           138.0           138.0
         2        57         1           138.0           138.0
         2        58         1           138.0           138.0
         2        59         1           138.0           138.0
         2        60         1           138.0           138.0
         2        61         1           138.0           138.0
         2        62         1           138.0           138.0
         2        63         1           138.0           138.0
         2        64         1           138.0           138.0
         2        65         1           138.0           138.0
         2        66         1           138.0           138.0
         2        67         1           138.0           138.0
         2        68         1           138.0           138.0
         2        69         1           138.0           138.0
         2        70         1           138.0           138.0
         2        71         1           138.0           138.0
         2        72         1           138.0           138.0
         2        73         1           138.0           138.0
         2        74         1           138.0           138.0
         2        75         1           138.0           138.0
         2        76         1           138.0           138.0
         2        77         1           138.0           138.0
         2        78         1           138.0           138.0
         2        79         1           138.0           138.0
         2        80         1           138.0           138.0
         2        81         1           138.0           138.0
         2        82         1           138.0           138.0
         2        83         1           138.0           138.0
         2        84         1           138.0           138.0
         2        85         1           138.0           138.0
         2        86         1           138.0           138.0
         2        87         1           138.0           138.0
         2        88         1           138.0           138.0
         2        89         1           138.0           138.0
         2        90         1           138.0           138.0
         2        91         1           138.0           138.0
         3         1         1           138.0           138.0
         3         2         1           138.0           138.0
         3         3         1           138.0           138.0
         3         4         1           138.0           138.0
         3         5         1           138.0           138.0
         3         6         1           138.0           138.0
         3         7         1           138.0           138.0
         3         8         1           138.0           138.0
         3         9         1           138.0           138.0
         3        10         1           138.0           138.0
         3        11         1           138.0           138.0
         3        12         1           138.0           138.0
         3        13         1           138.0           138.0
         3        14         1           138.0           138.0
         3        15         1           138.0           138.0
         3        16         1           138.0           138.0
         3        17         1           138.0           138.0
         3        18         1           138.0           138.0
         3        19         1           138.0           138.0
         3        20         1           138.0           138.0
         3        21         1           138.0           138.0
         3        22         1           138.0           138.0
         3        23         1           138.0           138.0
         3        24         1           138.0           138.0
         3        25         1           138.0           138.0
         3        26         1           138.0           138.0
         3        27         1           138.0           138.0
         3        28         1           138.0           138.0
         3        29         1           138.0           138.0
         3        30         1           138.0           138.0
         3        31         1           138.0           138.0
         3        32         1           138.0           138.0
         3        33         1           138.0           138.0
         3        34         1           138.0           138.0
         3        35         1           138.0           138.0
         3        36         1           138.0           138.0
         3        37         1           138.0           138.0
         3        38         1           138.0           138.0
         3        39         1           138.0           138.0
         3        40         1           138.0           138.0
         3        41         1           138.0           138.0
         3        42         1           138.0           138.0
         3        43         1           138.0           138.0
         3        44         1           138.0           138.0
         3        45         1           138.0           138.0
         3        46         1           138.0           138.0
         3        47         1           138.0           138.0
         3        48         1           138.0           138.0
         3        49         1           138.0           138.0
         3        50         1           138.0           138.0
         3        51         1           138.0           138.0
         3        52         1           138.0           138.0
         3        53         1           138.0           138.0
         3        54         1           138.0           138.0
         3        55         1           138.0           138.0
         3        56         1           138.0           138.0
         3        57         1           138.0           138.0
         3        58         1           138.0           138.0
         3        59         1           138.0           138.0
         3        60         1           138.0           138.0
         3        61         1           138.0           138.0
         3        62         1           138.0           138.0
         3        63         1           138.0           138.0
         3        64         1           138.0           138.0
         3        65         1           138.0           138.0
         3        66         1           138.0           138.0
         3        67         1           138.0           138.0
         3        68         1           138.0           138.0
         3        69         1           138.0           138.0
         3        70         1           138.0           138.0
         3        71         1           138.0           138.0
         3        72         1           138.0           138.0
         3        73         1           138.0           138.0
         3        74         1           138.0           138.0
         3        75         1           138.0           138.0
         3        76         1           138.0           138.0
         3        77         1           138.0           138.0
         3        78         1           138.0           138.0
         3        79         1           138.0           138.0
         3        80         1           138.0           138.0
         3        81         1           138.0           138.0
         3        82         1           138.0           138.0
         3        83         1           138.0           138.0
         3        84         1           138.0           138.0
         3        85         1           138.0           138.0
         3        86         1           138.0           138.0
         3        87         1           138.0           138.0
         3        88         1           138.0           138.0
         3        89         1           138.0           138.0
         3        90         1           138.0           138.0
         3        91         1           138.0           138.0
         2         1       182           114.0           114.0
         2         2       182           114.0           114.0
         2         3       182           114.0           114.0
         2         4       182           114.0           114.0
         2         5       182           114.0           114.0
         2         6       182           114.0           114.0
         2         7       182           114.0           114.0
         2         8       182           114.0           114.0
         2         9       182           114.0           114.0
         2        10       182           114.0           114.0
         2        11       182           114.0           114.0
         2        12       182           114.0           114.0
         2        13       182           114.0           114.0
         2        14       182           114.0           114.0
         2        15       182           114.0           114.0
         2        16       182           114.0           114.0
         2        17       182           114.0           114.0
         2        18       182           114.0           114.0
         2        19       182           114.0           114.0
         2        20       182           114.0           114.0
         2        21       182           114.0           114.0
         2        22       182           114.0           114.0
         2        23       182           114.0           114.0
         2        24       182           114.0           114.0
         2        25       182           114.0           114.0
         2        26       182           114.0           114.0
         2        27       182           114.0           114.0
         2        28       182           114.0           114.0
         2        29       182           114.0           114.0
         2        30       182           114.0           114.0
         2        31       182           114.0           114.0
         2        32       182           114.0           114.0
         2        33       182           114.0           114.0
         2        34       182           114.0           114.0
         2        35       182           114.0           114.0
         2        36       182           114.0           114.0
         2        37       182           114.0           114.0
         2        38       182           114.0           114.0
         2        39       182           114.0           114.0
         2        40       182           114.0           114.0
         2        41       182           114.0           114.0
         2        42       182           114.0           114.0
         2        43       182           114.0           114.0
         2        44       182           114.0           114.0
         2        45       182           114.0           114.0
         2        46       182           114.0           114.0
         2        47       182           114.0           114.0
         2        48       182           114.0           114.0
         2        49       182           114.0           114.0
         2        50       182           114.0           114.0
         2        51       182           114.0           114.0
         2        52       182           114.0           114.0
         2        53       182           114.0           114.0
         2        54       182           114.0           114.0
         2        55       182           114.0           114.0
         2        56       182           114.0           114.0
         2        57       182           114.0           114.0
         2        58       182           114.0           114.0
         2        59       182           114.0           114.0
         2        60       182           114.0           114.0
         2        61       182           114.0           114.0
         2        62       182           114.0           114.0
         2        63       182           114.0           114.0
         2        64       182           114.0           114.0
         2        65       182           114.0           114.0
         2        66       182           114.0           114.0
         2        67       182           114.0           114.0
         2        68       182           114.0           114.0
         2        69       182           114.0           114.0
         2        70       182           114.0           114.0
         2        71       182           114.0           114.0
         2        72       182           114.0           114.0
         2        73       182           114.0           114.0
         2        74       182           114.0           114.0
         2        75       182           114.0           114.0
         2        76       182           114.0           114.0
         2        77       182           114.0           114.0
         2        78       182           114.0           114.0
         2        79       182           114.0           114.0
         2        80       182           114.0           114.0
         2        81       182           114.0           114.0
         2        82       182           114.0           114.0
         2        83       182           114.0           114.0
         2        84       182           114.0           114.0
         2        85       182           114.0           114.0
         2        86       182           114.0           114.0
         2        87       182           114.0           114.0
         2        88       182           114.0           114.0
         2        89       182           114.0           114.0
         2        90       182           114.0           114.0
         2        91       182           114.0           114.0
         3         1       182           114.0           114.0
         3         2       182           114.0           114.0
         3         3       182           114.0           114.0
         3         4       182           114.0           114.0
         3         5       182           114.0           114.0
         3         6       182           114.0           114.0
         3         7       182           114.0           114.0
         3         8       182           114.0           114.0
         3         9       182           114.0           114.0
         3        10       182           114.0           114.0
         3        11       182           114.0           114.0
         3        12       182           114.0           114.0
         3        13       182           114.0           114.0
         3        14       182           114.0           114.0
         3        15       182           114.0           114.0
         3        16       182           114.0           114.0
         3        17       182           114.0           114.0
         3        18       182           114.0           114.0
         3        19       182           114.0           114.0
         3        20       182           114.0           114.0
         3        21       182           114.0           114.0
         3        22       182           114.0           114.0
         3        23       182           114.0           114.0
         3        24       182           114.0           114.0
         3        25       182           114.0           114.0
         3        26       182           114.0           114.0
         3        27       182           114.0           114.0
         3        28       182           114.0           114.0
         3        29       182           114.0           114.0
         3        30       182           114.0           114.0
         3        31       182           114.0           114.0
         3        32       182           114.0           114.0
         3        33       182           114.0           114.0
         3        34       182           114.0           114.0
         3        35       182           114.0           114.0
         3        36       182           114.0           114.0
         3        37       182           114.0           114.0
         3        38       182           114.0           114.0
         3        39       182           114.0           114.0
         3        40       182           114.0           114.0
         3        41       182           114.0           114.0
         3        42       182           114.0           114.0
         3        43       182           114.0           114.0
         3        44       182           114.0           114.0
         3        45       182           114.0           114.0
         3        46       182           114.0           114.0
         3        47       182           114.0           114.0
         3        48       182           114.0           114.0
         3        49       182           114.0           114.0
         3        50       182           114.0           114.0
         3        51       182           114.0           114.0
         3        52       182           114.0           114.0
         3        53       182           114.0           114.0
         3        54       182           114.0           114.0
         3        55       182           114.0           114.0
         3        56       182           114.0           114.0
         3        57       182           114.0           114.0
         3        58       182           114.0           114.0
         3        59       182           114.0           114.0
         3        60       182           114.0           114.0
         3        61       182           114.0           114.0
         3        62       182           114.0           114.0
         3        63       182           114.0           114.0
         3        64       182           114.0           114.0
         3        65       182           114.0           114.0
         3        66       182           114.0           114.0
         3        67       182           114.0           114.0
         3        68       182           114.0           114.0
         3        69       182           114.0           114.0
         3        70       182           114.0           114.0
         3        71       182           114.0           114.0
         3        72       182           114.0           114.0
         3        73       182           114.0           114.0
         3        74       182           114.0           114.0
         3        75       182           114.0           114.0
         3        76       182           114.0           114.0
         3        77       182           114.0           114.0
         3        78       182           114.0           114.0
         3        79       182           114.0           114.0
         3        80       182           114.0           114.0
         3        81       182           114.0           114.0
         3        82       182           114.0           114.0
         3        83       182           114.0           114.0
         3        84       182           114.0           114.0
         3        85       182           114.0           114.0
         3        86       182           114.0           114.0
         3        87       182           114.0           114.0
         3        88       182           114.0           114.0
         3        89       182           114.0           114.0
         3        90       182           114.0           114.0
         3        91       182           114.0           114.0
