# File generated by Flopy version 3.3.6 on 04/13/2023 at 13:04:49.
BEGIN options
END options

