# File generated by Flopy version 3.3.6 on 04/17/2023 at 12:43:43.
BEGIN options
END options

BEGIN dimensions
  MAXBOUND  1296
END dimensions

BEGIN period  1
  7 1 1     138.00000000
  7 2 1     138.00000000
  7 3 1     138.00000000
  7 4 1     138.00000000
  7 5 1     138.00000000
  7 6 1     138.00000000
  7 7 1     138.00000000
  7 8 1     138.00000000
  7 9 1     138.00000000
  7 10 1     138.00000000
  7 11 1     138.00000000
  7 12 1     138.00000000
  7 13 1     138.00000000
  7 14 1     138.00000000
  7 15 1     138.00000000
  7 16 1     138.00000000
  7 17 1     138.00000000
  7 18 1     138.00000000
  7 19 1     138.00000000
  7 20 1     138.00000000
  7 21 1     138.00000000
  7 22 1     138.00000000
  7 23 1     138.00000000
  7 24 1     138.00000000
  7 25 1     138.00000000
  7 26 1     138.00000000
  7 27 1     138.00000000
  7 28 1     138.00000000
  7 29 1     138.00000000
  7 30 1     138.00000000
  7 31 1     138.00000000
  7 32 1     138.00000000
  7 33 1     138.00000000
  7 34 1     138.00000000
  7 35 1     138.00000000
  7 36 1     138.00000000
  7 37 1     138.00000000
  7 38 1     138.00000000
  7 39 1     138.00000000
  7 40 1     138.00000000
  7 41 1     138.00000000
  7 42 1     138.00000000
  7 43 1     138.00000000
  7 44 1     138.00000000
  7 45 1     138.00000000
  7 46 1     138.00000000
  7 47 1     138.00000000
  7 48 1     138.00000000
  7 49 1     138.00000000
  7 50 1     138.00000000
  7 51 1     138.00000000
  7 52 1     138.00000000
  7 53 1     138.00000000
  7 54 1     138.00000000
  7 55 1     138.00000000
  7 56 1     138.00000000
  7 57 1     138.00000000
  7 58 1     138.00000000
  7 59 1     138.00000000
  7 60 1     138.00000000
  7 61 1     138.00000000
  7 62 1     138.00000000
  7 63 1     138.00000000
  7 64 1     138.00000000
  7 65 1     138.00000000
  7 66 1     138.00000000
  7 67 1     138.00000000
  7 68 1     138.00000000
  7 69 1     138.00000000
  7 70 1     138.00000000
  7 71 1     138.00000000
  7 72 1     138.00000000
  7 73 1     138.00000000
  7 74 1     138.00000000
  7 75 1     138.00000000
  7 76 1     138.00000000
  7 77 1     138.00000000
  7 78 1     138.00000000
  7 79 1     138.00000000
  7 80 1     138.00000000
  7 81 1     138.00000000
  8 1 1     138.00000000
  8 2 1     138.00000000
  8 3 1     138.00000000
  8 4 1     138.00000000
  8 5 1     138.00000000
  8 6 1     138.00000000
  8 7 1     138.00000000
  8 8 1     138.00000000
  8 9 1     138.00000000
  8 10 1     138.00000000
  8 11 1     138.00000000
  8 12 1     138.00000000
  8 13 1     138.00000000
  8 14 1     138.00000000
  8 15 1     138.00000000
  8 16 1     138.00000000
  8 17 1     138.00000000
  8 18 1     138.00000000
  8 19 1     138.00000000
  8 20 1     138.00000000
  8 21 1     138.00000000
  8 22 1     138.00000000
  8 23 1     138.00000000
  8 24 1     138.00000000
  8 25 1     138.00000000
  8 26 1     138.00000000
  8 27 1     138.00000000
  8 28 1     138.00000000
  8 29 1     138.00000000
  8 30 1     138.00000000
  8 31 1     138.00000000
  8 32 1     138.00000000
  8 33 1     138.00000000
  8 34 1     138.00000000
  8 35 1     138.00000000
  8 36 1     138.00000000
  8 37 1     138.00000000
  8 38 1     138.00000000
  8 39 1     138.00000000
  8 40 1     138.00000000
  8 41 1     138.00000000
  8 42 1     138.00000000
  8 43 1     138.00000000
  8 44 1     138.00000000
  8 45 1     138.00000000
  8 46 1     138.00000000
  8 47 1     138.00000000
  8 48 1     138.00000000
  8 49 1     138.00000000
  8 50 1     138.00000000
  8 51 1     138.00000000
  8 52 1     138.00000000
  8 53 1     138.00000000
  8 54 1     138.00000000
  8 55 1     138.00000000
  8 56 1     138.00000000
  8 57 1     138.00000000
  8 58 1     138.00000000
  8 59 1     138.00000000
  8 60 1     138.00000000
  8 61 1     138.00000000
  8 62 1     138.00000000
  8 63 1     138.00000000
  8 64 1     138.00000000
  8 65 1     138.00000000
  8 66 1     138.00000000
  8 67 1     138.00000000
  8 68 1     138.00000000
  8 69 1     138.00000000
  8 70 1     138.00000000
  8 71 1     138.00000000
  8 72 1     138.00000000
  8 73 1     138.00000000
  8 74 1     138.00000000
  8 75 1     138.00000000
  8 76 1     138.00000000
  8 77 1     138.00000000
  8 78 1     138.00000000
  8 79 1     138.00000000
  8 80 1     138.00000000
  8 81 1     138.00000000
  9 1 1     138.00000000
  9 2 1     138.00000000
  9 3 1     138.00000000
  9 4 1     138.00000000
  9 5 1     138.00000000
  9 6 1     138.00000000
  9 7 1     138.00000000
  9 8 1     138.00000000
  9 9 1     138.00000000
  9 10 1     138.00000000
  9 11 1     138.00000000
  9 12 1     138.00000000
  9 13 1     138.00000000
  9 14 1     138.00000000
  9 15 1     138.00000000
  9 16 1     138.00000000
  9 17 1     138.00000000
  9 18 1     138.00000000
  9 19 1     138.00000000
  9 20 1     138.00000000
  9 21 1     138.00000000
  9 22 1     138.00000000
  9 23 1     138.00000000
  9 24 1     138.00000000
  9 25 1     138.00000000
  9 26 1     138.00000000
  9 27 1     138.00000000
  9 28 1     138.00000000
  9 29 1     138.00000000
  9 30 1     138.00000000
  9 31 1     138.00000000
  9 32 1     138.00000000
  9 33 1     138.00000000
  9 34 1     138.00000000
  9 35 1     138.00000000
  9 36 1     138.00000000
  9 37 1     138.00000000
  9 38 1     138.00000000
  9 39 1     138.00000000
  9 40 1     138.00000000
  9 41 1     138.00000000
  9 42 1     138.00000000
  9 43 1     138.00000000
  9 44 1     138.00000000
  9 45 1     138.00000000
  9 46 1     138.00000000
  9 47 1     138.00000000
  9 48 1     138.00000000
  9 49 1     138.00000000
  9 50 1     138.00000000
  9 51 1     138.00000000
  9 52 1     138.00000000
  9 53 1     138.00000000
  9 54 1     138.00000000
  9 55 1     138.00000000
  9 56 1     138.00000000
  9 57 1     138.00000000
  9 58 1     138.00000000
  9 59 1     138.00000000
  9 60 1     138.00000000
  9 61 1     138.00000000
  9 62 1     138.00000000
  9 63 1     138.00000000
  9 64 1     138.00000000
  9 65 1     138.00000000
  9 66 1     138.00000000
  9 67 1     138.00000000
  9 68 1     138.00000000
  9 69 1     138.00000000
  9 70 1     138.00000000
  9 71 1     138.00000000
  9 72 1     138.00000000
  9 73 1     138.00000000
  9 74 1     138.00000000
  9 75 1     138.00000000
  9 76 1     138.00000000
  9 77 1     138.00000000
  9 78 1     138.00000000
  9 79 1     138.00000000
  9 80 1     138.00000000
  9 81 1     138.00000000
  10 1 1     138.00000000
  10 2 1     138.00000000
  10 3 1     138.00000000
  10 4 1     138.00000000
  10 5 1     138.00000000
  10 6 1     138.00000000
  10 7 1     138.00000000
  10 8 1     138.00000000
  10 9 1     138.00000000
  10 10 1     138.00000000
  10 11 1     138.00000000
  10 12 1     138.00000000
  10 13 1     138.00000000
  10 14 1     138.00000000
  10 15 1     138.00000000
  10 16 1     138.00000000
  10 17 1     138.00000000
  10 18 1     138.00000000
  10 19 1     138.00000000
  10 20 1     138.00000000
  10 21 1     138.00000000
  10 22 1     138.00000000
  10 23 1     138.00000000
  10 24 1     138.00000000
  10 25 1     138.00000000
  10 26 1     138.00000000
  10 27 1     138.00000000
  10 28 1     138.00000000
  10 29 1     138.00000000
  10 30 1     138.00000000
  10 31 1     138.00000000
  10 32 1     138.00000000
  10 33 1     138.00000000
  10 34 1     138.00000000
  10 35 1     138.00000000
  10 36 1     138.00000000
  10 37 1     138.00000000
  10 38 1     138.00000000
  10 39 1     138.00000000
  10 40 1     138.00000000
  10 41 1     138.00000000
  10 42 1     138.00000000
  10 43 1     138.00000000
  10 44 1     138.00000000
  10 45 1     138.00000000
  10 46 1     138.00000000
  10 47 1     138.00000000
  10 48 1     138.00000000
  10 49 1     138.00000000
  10 50 1     138.00000000
  10 51 1     138.00000000
  10 52 1     138.00000000
  10 53 1     138.00000000
  10 54 1     138.00000000
  10 55 1     138.00000000
  10 56 1     138.00000000
  10 57 1     138.00000000
  10 58 1     138.00000000
  10 59 1     138.00000000
  10 60 1     138.00000000
  10 61 1     138.00000000
  10 62 1     138.00000000
  10 63 1     138.00000000
  10 64 1     138.00000000
  10 65 1     138.00000000
  10 66 1     138.00000000
  10 67 1     138.00000000
  10 68 1     138.00000000
  10 69 1     138.00000000
  10 70 1     138.00000000
  10 71 1     138.00000000
  10 72 1     138.00000000
  10 73 1     138.00000000
  10 74 1     138.00000000
  10 75 1     138.00000000
  10 76 1     138.00000000
  10 77 1     138.00000000
  10 78 1     138.00000000
  10 79 1     138.00000000
  10 80 1     138.00000000
  10 81 1     138.00000000
  11 1 1     138.00000000
  11 2 1     138.00000000
  11 3 1     138.00000000
  11 4 1     138.00000000
  11 5 1     138.00000000
  11 6 1     138.00000000
  11 7 1     138.00000000
  11 8 1     138.00000000
  11 9 1     138.00000000
  11 10 1     138.00000000
  11 11 1     138.00000000
  11 12 1     138.00000000
  11 13 1     138.00000000
  11 14 1     138.00000000
  11 15 1     138.00000000
  11 16 1     138.00000000
  11 17 1     138.00000000
  11 18 1     138.00000000
  11 19 1     138.00000000
  11 20 1     138.00000000
  11 21 1     138.00000000
  11 22 1     138.00000000
  11 23 1     138.00000000
  11 24 1     138.00000000
  11 25 1     138.00000000
  11 26 1     138.00000000
  11 27 1     138.00000000
  11 28 1     138.00000000
  11 29 1     138.00000000
  11 30 1     138.00000000
  11 31 1     138.00000000
  11 32 1     138.00000000
  11 33 1     138.00000000
  11 34 1     138.00000000
  11 35 1     138.00000000
  11 36 1     138.00000000
  11 37 1     138.00000000
  11 38 1     138.00000000
  11 39 1     138.00000000
  11 40 1     138.00000000
  11 41 1     138.00000000
  11 42 1     138.00000000
  11 43 1     138.00000000
  11 44 1     138.00000000
  11 45 1     138.00000000
  11 46 1     138.00000000
  11 47 1     138.00000000
  11 48 1     138.00000000
  11 49 1     138.00000000
  11 50 1     138.00000000
  11 51 1     138.00000000
  11 52 1     138.00000000
  11 53 1     138.00000000
  11 54 1     138.00000000
  11 55 1     138.00000000
  11 56 1     138.00000000
  11 57 1     138.00000000
  11 58 1     138.00000000
  11 59 1     138.00000000
  11 60 1     138.00000000
  11 61 1     138.00000000
  11 62 1     138.00000000
  11 63 1     138.00000000
  11 64 1     138.00000000
  11 65 1     138.00000000
  11 66 1     138.00000000
  11 67 1     138.00000000
  11 68 1     138.00000000
  11 69 1     138.00000000
  11 70 1     138.00000000
  11 71 1     138.00000000
  11 72 1     138.00000000
  11 73 1     138.00000000
  11 74 1     138.00000000
  11 75 1     138.00000000
  11 76 1     138.00000000
  11 77 1     138.00000000
  11 78 1     138.00000000
  11 79 1     138.00000000
  11 80 1     138.00000000
  11 81 1     138.00000000
  12 1 1     138.00000000
  12 2 1     138.00000000
  12 3 1     138.00000000
  12 4 1     138.00000000
  12 5 1     138.00000000
  12 6 1     138.00000000
  12 7 1     138.00000000
  12 8 1     138.00000000
  12 9 1     138.00000000
  12 10 1     138.00000000
  12 11 1     138.00000000
  12 12 1     138.00000000
  12 13 1     138.00000000
  12 14 1     138.00000000
  12 15 1     138.00000000
  12 16 1     138.00000000
  12 17 1     138.00000000
  12 18 1     138.00000000
  12 19 1     138.00000000
  12 20 1     138.00000000
  12 21 1     138.00000000
  12 22 1     138.00000000
  12 23 1     138.00000000
  12 24 1     138.00000000
  12 25 1     138.00000000
  12 26 1     138.00000000
  12 27 1     138.00000000
  12 28 1     138.00000000
  12 29 1     138.00000000
  12 30 1     138.00000000
  12 31 1     138.00000000
  12 32 1     138.00000000
  12 33 1     138.00000000
  12 34 1     138.00000000
  12 35 1     138.00000000
  12 36 1     138.00000000
  12 37 1     138.00000000
  12 38 1     138.00000000
  12 39 1     138.00000000
  12 40 1     138.00000000
  12 41 1     138.00000000
  12 42 1     138.00000000
  12 43 1     138.00000000
  12 44 1     138.00000000
  12 45 1     138.00000000
  12 46 1     138.00000000
  12 47 1     138.00000000
  12 48 1     138.00000000
  12 49 1     138.00000000
  12 50 1     138.00000000
  12 51 1     138.00000000
  12 52 1     138.00000000
  12 53 1     138.00000000
  12 54 1     138.00000000
  12 55 1     138.00000000
  12 56 1     138.00000000
  12 57 1     138.00000000
  12 58 1     138.00000000
  12 59 1     138.00000000
  12 60 1     138.00000000
  12 61 1     138.00000000
  12 62 1     138.00000000
  12 63 1     138.00000000
  12 64 1     138.00000000
  12 65 1     138.00000000
  12 66 1     138.00000000
  12 67 1     138.00000000
  12 68 1     138.00000000
  12 69 1     138.00000000
  12 70 1     138.00000000
  12 71 1     138.00000000
  12 72 1     138.00000000
  12 73 1     138.00000000
  12 74 1     138.00000000
  12 75 1     138.00000000
  12 76 1     138.00000000
  12 77 1     138.00000000
  12 78 1     138.00000000
  12 79 1     138.00000000
  12 80 1     138.00000000
  12 81 1     138.00000000
  13 1 1     138.00000000
  13 2 1     138.00000000
  13 3 1     138.00000000
  13 4 1     138.00000000
  13 5 1     138.00000000
  13 6 1     138.00000000
  13 7 1     138.00000000
  13 8 1     138.00000000
  13 9 1     138.00000000
  13 10 1     138.00000000
  13 11 1     138.00000000
  13 12 1     138.00000000
  13 13 1     138.00000000
  13 14 1     138.00000000
  13 15 1     138.00000000
  13 16 1     138.00000000
  13 17 1     138.00000000
  13 18 1     138.00000000
  13 19 1     138.00000000
  13 20 1     138.00000000
  13 21 1     138.00000000
  13 22 1     138.00000000
  13 23 1     138.00000000
  13 24 1     138.00000000
  13 25 1     138.00000000
  13 26 1     138.00000000
  13 27 1     138.00000000
  13 28 1     138.00000000
  13 29 1     138.00000000
  13 30 1     138.00000000
  13 31 1     138.00000000
  13 32 1     138.00000000
  13 33 1     138.00000000
  13 34 1     138.00000000
  13 35 1     138.00000000
  13 36 1     138.00000000
  13 37 1     138.00000000
  13 38 1     138.00000000
  13 39 1     138.00000000
  13 40 1     138.00000000
  13 41 1     138.00000000
  13 42 1     138.00000000
  13 43 1     138.00000000
  13 44 1     138.00000000
  13 45 1     138.00000000
  13 46 1     138.00000000
  13 47 1     138.00000000
  13 48 1     138.00000000
  13 49 1     138.00000000
  13 50 1     138.00000000
  13 51 1     138.00000000
  13 52 1     138.00000000
  13 53 1     138.00000000
  13 54 1     138.00000000
  13 55 1     138.00000000
  13 56 1     138.00000000
  13 57 1     138.00000000
  13 58 1     138.00000000
  13 59 1     138.00000000
  13 60 1     138.00000000
  13 61 1     138.00000000
  13 62 1     138.00000000
  13 63 1     138.00000000
  13 64 1     138.00000000
  13 65 1     138.00000000
  13 66 1     138.00000000
  13 67 1     138.00000000
  13 68 1     138.00000000
  13 69 1     138.00000000
  13 70 1     138.00000000
  13 71 1     138.00000000
  13 72 1     138.00000000
  13 73 1     138.00000000
  13 74 1     138.00000000
  13 75 1     138.00000000
  13 76 1     138.00000000
  13 77 1     138.00000000
  13 78 1     138.00000000
  13 79 1     138.00000000
  13 80 1     138.00000000
  13 81 1     138.00000000
  14 1 1     138.00000000
  14 2 1     138.00000000
  14 3 1     138.00000000
  14 4 1     138.00000000
  14 5 1     138.00000000
  14 6 1     138.00000000
  14 7 1     138.00000000
  14 8 1     138.00000000
  14 9 1     138.00000000
  14 10 1     138.00000000
  14 11 1     138.00000000
  14 12 1     138.00000000
  14 13 1     138.00000000
  14 14 1     138.00000000
  14 15 1     138.00000000
  14 16 1     138.00000000
  14 17 1     138.00000000
  14 18 1     138.00000000
  14 19 1     138.00000000
  14 20 1     138.00000000
  14 21 1     138.00000000
  14 22 1     138.00000000
  14 23 1     138.00000000
  14 24 1     138.00000000
  14 25 1     138.00000000
  14 26 1     138.00000000
  14 27 1     138.00000000
  14 28 1     138.00000000
  14 29 1     138.00000000
  14 30 1     138.00000000
  14 31 1     138.00000000
  14 32 1     138.00000000
  14 33 1     138.00000000
  14 34 1     138.00000000
  14 35 1     138.00000000
  14 36 1     138.00000000
  14 37 1     138.00000000
  14 38 1     138.00000000
  14 39 1     138.00000000
  14 40 1     138.00000000
  14 41 1     138.00000000
  14 42 1     138.00000000
  14 43 1     138.00000000
  14 44 1     138.00000000
  14 45 1     138.00000000
  14 46 1     138.00000000
  14 47 1     138.00000000
  14 48 1     138.00000000
  14 49 1     138.00000000
  14 50 1     138.00000000
  14 51 1     138.00000000
  14 52 1     138.00000000
  14 53 1     138.00000000
  14 54 1     138.00000000
  14 55 1     138.00000000
  14 56 1     138.00000000
  14 57 1     138.00000000
  14 58 1     138.00000000
  14 59 1     138.00000000
  14 60 1     138.00000000
  14 61 1     138.00000000
  14 62 1     138.00000000
  14 63 1     138.00000000
  14 64 1     138.00000000
  14 65 1     138.00000000
  14 66 1     138.00000000
  14 67 1     138.00000000
  14 68 1     138.00000000
  14 69 1     138.00000000
  14 70 1     138.00000000
  14 71 1     138.00000000
  14 72 1     138.00000000
  14 73 1     138.00000000
  14 74 1     138.00000000
  14 75 1     138.00000000
  14 76 1     138.00000000
  14 77 1     138.00000000
  14 78 1     138.00000000
  14 79 1     138.00000000
  14 80 1     138.00000000
  14 81 1     138.00000000
  15 1 1     138.00000000
  15 2 1     138.00000000
  15 3 1     138.00000000
  15 4 1     138.00000000
  15 5 1     138.00000000
  15 6 1     138.00000000
  15 7 1     138.00000000
  15 8 1     138.00000000
  15 9 1     138.00000000
  15 10 1     138.00000000
  15 11 1     138.00000000
  15 12 1     138.00000000
  15 13 1     138.00000000
  15 14 1     138.00000000
  15 15 1     138.00000000
  15 16 1     138.00000000
  15 17 1     138.00000000
  15 18 1     138.00000000
  15 19 1     138.00000000
  15 20 1     138.00000000
  15 21 1     138.00000000
  15 22 1     138.00000000
  15 23 1     138.00000000
  15 24 1     138.00000000
  15 25 1     138.00000000
  15 26 1     138.00000000
  15 27 1     138.00000000
  15 28 1     138.00000000
  15 29 1     138.00000000
  15 30 1     138.00000000
  15 31 1     138.00000000
  15 32 1     138.00000000
  15 33 1     138.00000000
  15 34 1     138.00000000
  15 35 1     138.00000000
  15 36 1     138.00000000
  15 37 1     138.00000000
  15 38 1     138.00000000
  15 39 1     138.00000000
  15 40 1     138.00000000
  15 41 1     138.00000000
  15 42 1     138.00000000
  15 43 1     138.00000000
  15 44 1     138.00000000
  15 45 1     138.00000000
  15 46 1     138.00000000
  15 47 1     138.00000000
  15 48 1     138.00000000
  15 49 1     138.00000000
  15 50 1     138.00000000
  15 51 1     138.00000000
  15 52 1     138.00000000
  15 53 1     138.00000000
  15 54 1     138.00000000
  15 55 1     138.00000000
  15 56 1     138.00000000
  15 57 1     138.00000000
  15 58 1     138.00000000
  15 59 1     138.00000000
  15 60 1     138.00000000
  15 61 1     138.00000000
  15 62 1     138.00000000
  15 63 1     138.00000000
  15 64 1     138.00000000
  15 65 1     138.00000000
  15 66 1     138.00000000
  15 67 1     138.00000000
  15 68 1     138.00000000
  15 69 1     138.00000000
  15 70 1     138.00000000
  15 71 1     138.00000000
  15 72 1     138.00000000
  15 73 1     138.00000000
  15 74 1     138.00000000
  15 75 1     138.00000000
  15 76 1     138.00000000
  15 77 1     138.00000000
  15 78 1     138.00000000
  15 79 1     138.00000000
  15 80 1     138.00000000
  15 81 1     138.00000000
  9 1 163     114.00000000
  9 2 163     114.00000000
  9 3 163     114.00000000
  9 4 163     114.00000000
  9 5 163     114.00000000
  9 6 163     114.00000000
  9 7 163     114.00000000
  9 8 163     114.00000000
  9 9 163     114.00000000
  9 10 163     114.00000000
  9 11 163     114.00000000
  9 12 163     114.00000000
  9 13 163     114.00000000
  9 14 163     114.00000000
  9 15 163     114.00000000
  9 16 163     114.00000000
  9 17 163     114.00000000
  9 18 163     114.00000000
  9 19 163     114.00000000
  9 20 163     114.00000000
  9 21 163     114.00000000
  9 22 163     114.00000000
  9 23 163     114.00000000
  9 24 163     114.00000000
  9 25 163     114.00000000
  9 26 163     114.00000000
  9 27 163     114.00000000
  9 28 163     114.00000000
  9 29 163     114.00000000
  9 30 163     114.00000000
  9 31 163     114.00000000
  9 32 163     114.00000000
  9 33 163     114.00000000
  9 34 163     114.00000000
  9 35 163     114.00000000
  9 36 163     114.00000000
  9 37 163     114.00000000
  9 38 163     114.00000000
  9 39 163     114.00000000
  9 40 163     114.00000000
  9 41 163     114.00000000
  9 42 163     114.00000000
  9 43 163     114.00000000
  9 44 163     114.00000000
  9 45 163     114.00000000
  9 46 163     114.00000000
  9 47 163     114.00000000
  9 48 163     114.00000000
  9 49 163     114.00000000
  9 50 163     114.00000000
  9 51 163     114.00000000
  9 52 163     114.00000000
  9 53 163     114.00000000
  9 54 163     114.00000000
  9 55 163     114.00000000
  9 56 163     114.00000000
  9 57 163     114.00000000
  9 58 163     114.00000000
  9 59 163     114.00000000
  9 60 163     114.00000000
  9 61 163     114.00000000
  9 62 163     114.00000000
  9 63 163     114.00000000
  9 64 163     114.00000000
  9 65 163     114.00000000
  9 66 163     114.00000000
  9 67 163     114.00000000
  9 68 163     114.00000000
  9 69 163     114.00000000
  9 70 163     114.00000000
  9 71 163     114.00000000
  9 72 163     114.00000000
  9 73 163     114.00000000
  9 74 163     114.00000000
  9 75 163     114.00000000
  9 76 163     114.00000000
  9 77 163     114.00000000
  9 78 163     114.00000000
  9 79 163     114.00000000
  9 80 163     114.00000000
  9 81 163     114.00000000
  10 1 163     114.00000000
  10 2 163     114.00000000
  10 3 163     114.00000000
  10 4 163     114.00000000
  10 5 163     114.00000000
  10 6 163     114.00000000
  10 7 163     114.00000000
  10 8 163     114.00000000
  10 9 163     114.00000000
  10 10 163     114.00000000
  10 11 163     114.00000000
  10 12 163     114.00000000
  10 13 163     114.00000000
  10 14 163     114.00000000
  10 15 163     114.00000000
  10 16 163     114.00000000
  10 17 163     114.00000000
  10 18 163     114.00000000
  10 19 163     114.00000000
  10 20 163     114.00000000
  10 21 163     114.00000000
  10 22 163     114.00000000
  10 23 163     114.00000000
  10 24 163     114.00000000
  10 25 163     114.00000000
  10 26 163     114.00000000
  10 27 163     114.00000000
  10 28 163     114.00000000
  10 29 163     114.00000000
  10 30 163     114.00000000
  10 31 163     114.00000000
  10 32 163     114.00000000
  10 33 163     114.00000000
  10 34 163     114.00000000
  10 35 163     114.00000000
  10 36 163     114.00000000
  10 37 163     114.00000000
  10 38 163     114.00000000
  10 39 163     114.00000000
  10 40 163     114.00000000
  10 41 163     114.00000000
  10 42 163     114.00000000
  10 43 163     114.00000000
  10 44 163     114.00000000
  10 45 163     114.00000000
  10 46 163     114.00000000
  10 47 163     114.00000000
  10 48 163     114.00000000
  10 49 163     114.00000000
  10 50 163     114.00000000
  10 51 163     114.00000000
  10 52 163     114.00000000
  10 53 163     114.00000000
  10 54 163     114.00000000
  10 55 163     114.00000000
  10 56 163     114.00000000
  10 57 163     114.00000000
  10 58 163     114.00000000
  10 59 163     114.00000000
  10 60 163     114.00000000
  10 61 163     114.00000000
  10 62 163     114.00000000
  10 63 163     114.00000000
  10 64 163     114.00000000
  10 65 163     114.00000000
  10 66 163     114.00000000
  10 67 163     114.00000000
  10 68 163     114.00000000
  10 69 163     114.00000000
  10 70 163     114.00000000
  10 71 163     114.00000000
  10 72 163     114.00000000
  10 73 163     114.00000000
  10 74 163     114.00000000
  10 75 163     114.00000000
  10 76 163     114.00000000
  10 77 163     114.00000000
  10 78 163     114.00000000
  10 79 163     114.00000000
  10 80 163     114.00000000
  10 81 163     114.00000000
  11 1 163     114.00000000
  11 2 163     114.00000000
  11 3 163     114.00000000
  11 4 163     114.00000000
  11 5 163     114.00000000
  11 6 163     114.00000000
  11 7 163     114.00000000
  11 8 163     114.00000000
  11 9 163     114.00000000
  11 10 163     114.00000000
  11 11 163     114.00000000
  11 12 163     114.00000000
  11 13 163     114.00000000
  11 14 163     114.00000000
  11 15 163     114.00000000
  11 16 163     114.00000000
  11 17 163     114.00000000
  11 18 163     114.00000000
  11 19 163     114.00000000
  11 20 163     114.00000000
  11 21 163     114.00000000
  11 22 163     114.00000000
  11 23 163     114.00000000
  11 24 163     114.00000000
  11 25 163     114.00000000
  11 26 163     114.00000000
  11 27 163     114.00000000
  11 28 163     114.00000000
  11 29 163     114.00000000
  11 30 163     114.00000000
  11 31 163     114.00000000
  11 32 163     114.00000000
  11 33 163     114.00000000
  11 34 163     114.00000000
  11 35 163     114.00000000
  11 36 163     114.00000000
  11 37 163     114.00000000
  11 38 163     114.00000000
  11 39 163     114.00000000
  11 40 163     114.00000000
  11 41 163     114.00000000
  11 42 163     114.00000000
  11 43 163     114.00000000
  11 44 163     114.00000000
  11 45 163     114.00000000
  11 46 163     114.00000000
  11 47 163     114.00000000
  11 48 163     114.00000000
  11 49 163     114.00000000
  11 50 163     114.00000000
  11 51 163     114.00000000
  11 52 163     114.00000000
  11 53 163     114.00000000
  11 54 163     114.00000000
  11 55 163     114.00000000
  11 56 163     114.00000000
  11 57 163     114.00000000
  11 58 163     114.00000000
  11 59 163     114.00000000
  11 60 163     114.00000000
  11 61 163     114.00000000
  11 62 163     114.00000000
  11 63 163     114.00000000
  11 64 163     114.00000000
  11 65 163     114.00000000
  11 66 163     114.00000000
  11 67 163     114.00000000
  11 68 163     114.00000000
  11 69 163     114.00000000
  11 70 163     114.00000000
  11 71 163     114.00000000
  11 72 163     114.00000000
  11 73 163     114.00000000
  11 74 163     114.00000000
  11 75 163     114.00000000
  11 76 163     114.00000000
  11 77 163     114.00000000
  11 78 163     114.00000000
  11 79 163     114.00000000
  11 80 163     114.00000000
  11 81 163     114.00000000
  12 1 163     114.00000000
  12 2 163     114.00000000
  12 3 163     114.00000000
  12 4 163     114.00000000
  12 5 163     114.00000000
  12 6 163     114.00000000
  12 7 163     114.00000000
  12 8 163     114.00000000
  12 9 163     114.00000000
  12 10 163     114.00000000
  12 11 163     114.00000000
  12 12 163     114.00000000
  12 13 163     114.00000000
  12 14 163     114.00000000
  12 15 163     114.00000000
  12 16 163     114.00000000
  12 17 163     114.00000000
  12 18 163     114.00000000
  12 19 163     114.00000000
  12 20 163     114.00000000
  12 21 163     114.00000000
  12 22 163     114.00000000
  12 23 163     114.00000000
  12 24 163     114.00000000
  12 25 163     114.00000000
  12 26 163     114.00000000
  12 27 163     114.00000000
  12 28 163     114.00000000
  12 29 163     114.00000000
  12 30 163     114.00000000
  12 31 163     114.00000000
  12 32 163     114.00000000
  12 33 163     114.00000000
  12 34 163     114.00000000
  12 35 163     114.00000000
  12 36 163     114.00000000
  12 37 163     114.00000000
  12 38 163     114.00000000
  12 39 163     114.00000000
  12 40 163     114.00000000
  12 41 163     114.00000000
  12 42 163     114.00000000
  12 43 163     114.00000000
  12 44 163     114.00000000
  12 45 163     114.00000000
  12 46 163     114.00000000
  12 47 163     114.00000000
  12 48 163     114.00000000
  12 49 163     114.00000000
  12 50 163     114.00000000
  12 51 163     114.00000000
  12 52 163     114.00000000
  12 53 163     114.00000000
  12 54 163     114.00000000
  12 55 163     114.00000000
  12 56 163     114.00000000
  12 57 163     114.00000000
  12 58 163     114.00000000
  12 59 163     114.00000000
  12 60 163     114.00000000
  12 61 163     114.00000000
  12 62 163     114.00000000
  12 63 163     114.00000000
  12 64 163     114.00000000
  12 65 163     114.00000000
  12 66 163     114.00000000
  12 67 163     114.00000000
  12 68 163     114.00000000
  12 69 163     114.00000000
  12 70 163     114.00000000
  12 71 163     114.00000000
  12 72 163     114.00000000
  12 73 163     114.00000000
  12 74 163     114.00000000
  12 75 163     114.00000000
  12 76 163     114.00000000
  12 77 163     114.00000000
  12 78 163     114.00000000
  12 79 163     114.00000000
  12 80 163     114.00000000
  12 81 163     114.00000000
  13 1 163     114.00000000
  13 2 163     114.00000000
  13 3 163     114.00000000
  13 4 163     114.00000000