# Input parameters for MODPATH simulation and concentration calculations
N_p          1000          -        # Number of particles dropped each loading (approximate)
NXp             1          -        # Number of particles in x direction per cell
NYp             1          -        # Number of particles in y direction per drop         
C_i           1.0          mg/L     # Initial concentration in pond (1.0 generates C/C_i outputs)
drain_rate    1.0          -        # Number of ponds to drain per particle loading
num_pV       10.0          -        # Number of alluvium pore volumes to flush before terminating simulation
num_c           8          -        # Number of nonzero concentrations to report (depracated) 
