# File generated by Flopy version 3.3.6 on 04/17/2023 at 12:44:35.
BEGIN options
END options

