# File generated by Flopy version 3.3.6 on 04/13/2023 at 13:08:13.
BEGIN options
END options

