# File generated by Flopy version 3.3.6 on 04/17/2023 at 12:44:35.
BEGIN options
END options

BEGIN timing
  TDIS6  incised.tdis
END timing

BEGIN models
  gwf6  incised.nam  incised
END models

BEGIN exchanges
END exchanges

BEGIN solutiongroup  1
  ims6  incised.ims  incised
END solutiongroup  1

