# File generated by Flopy version 3.3.5 on 05/01/2023 at 17:32:06.
BEGIN options
END options

