# File generated by Flopy version 3.3.5 on 05/01/2023 at 17:32:06.
BEGIN options
END options

BEGIN packages
  chd6  incised.chd  chd_0
  oc6  incised.oc  oc
  npf6  incised.npf  npf
  ic6  incised.ic  ic
  dis6  incised.dis  dis
  UZF6  incised.uzf  uzf-1
END packages

