# File generated by Flopy version 3.3.5 on 05/09/2023 at 08:06:02.
BEGIN options
END options

BEGIN packages
  dis6  incised.dis  dis
  ic6  incised.ic  ic
  npf6  incised.npf  npf
  oc6  incised.oc  oc
  chd6  incised.chd  chd_0
  UZF6  incised.uzf  uzf-1
END packages

