# File generated by Flopy version 3.3.5 on 05/09/2023 at 08:06:09.
BEGIN griddata
  strt  LAYERED
    INTERNAL  FACTOR  1.0
         200.00000000     200.00000000     200.00000000     200.00000000     200.00000000     200.00000000     200.00000000     200.00000000     200.00000000     200.00000000     200.00000000     200.00000000     200.00000000     200.00000000     200.00000000     200.00000000     200.00000000     200.00000000     200.00000000     200.00000000     200.00000000     200.00000000     200.00000000     200.00000000     200.00000000     200.00000000     200.00000000     200.00000000     200.00000000     200.00000000     200.00000000     200.00000000     200.00000000     200.00000000     200.00000000     200.00000000     200.00000000     200.00000000     200.00000000     200.00000000     200.00000000     200.00000000     200.00000000     200.00000000     200.00000000     200.00000000     200.00000000     200.00000000     200.00000000     200.00000000     200.00000000     200.00000000     200.00000000     200.00000000     200.00000000     200.00000000     200.00000000     200.00000000     200.00000000     200.00000000     200.00000000     200.00000000     200.00000000     200.00000000     200.00000000     200.00000000     200.00000000     200.00000000     200.00000000     200.00000000     200.00000000     200.00000000     200.00000000     200.00000000     200.00000000     200.00000000     200.00000000     200.00000000     200.00000000     200.00000000     200.00000000     200.00000000     200.00000000     200.00000000     200.00000000     200.00000000     200.00000000     200.00000000     200.00000000     200.00000000     200.00000000     200.00000000     200.00000000     200.00000000     200.00000000     200.00000000     200.00000000     200.00000000     200.00000000     200.00000000     200.00000000     200.00000000     200.00000000     200.00000000     200.00000000     200.00000000     200.00000000     200.00000000     200.00000000     200.00000000     200.00000000     200.00000000     200.00000000     200.00000000     200.00000000     200.00000000     200.00000000     200.00000000     200.00000000     200.00000000     200.00000000     200.00000000     200.00000000     200.00000000     200.00000000     200.00000000     200.00000000     200.00000000     200.00000000     200.00000000     200.00000000     200.00000000     200.00000000     200.00000000     200.00000000     200.00000000     200.00000000     200.00000000     200.00000000     200.00000000     200.00000000     200.00000000     200.00000000     200.00000000     200.00000000     200.00000000     200.00000000     200.00000000     200.00000000     200.00000000     200.00000000     200.00000000     200.00000000     200.00000000     200.00000000     200.00000000     200.00000000     200.00000000     200.00000000     200.00000000     200.00000000     200.00000000     200.00000000
         200.00000000     200.00000000     200.00000000     200.00000000     200.00000000     200.00000000     200.00000000     200.00000000     200.00000000     200.00000000     200.00000000     200.00000000     200.00000000     200.00000000     200.00000000     200.00000000     200.00000000     200.00000000     200.00000000     200.00000000     200.00000000     200.00000000     200.00000000     200.00000000     200.00000000     200.00000000     200.00000000     200.00000000     200.00000000     200.00000000     200.00000000     200.00000000     200.00000000     200.00000000     200.00000000     200.00000000     200.00000000     200.00000000     200.00000000     200.00000000     200.00000000     200.00000000     200.00000000     200.00000000     200.00000000     200.00000000     200.00000000     200.00000000     200.00000000     200.00000000     200.00000000     200.00000000     200.00000000     200.00000000     200.00000000     200.00000000     200.00000000     200.00000000     200.00000000     200.00000000     200.00000000     200.00000000     200.00000000     200.00000000     200.00000000     200.00000000     200.00000000     200.00000000     200.00000000     200.00000000     200.00000000     200.00000000     200.00000000     200.00000000     200.00000000     200.00000000     200.00000000     200.00000000     200.00000000     200.00000000     200.00000000     200.00000000     200.00000000     200.00000000     200.00000000     200.00000000     200.00000000     200.00000000     200.00000000     200.00000000     200.00000000     200.00000000     200.00000000     200.00000000     200.00000000     200.00000000     200.00000000     200.00000000     200.00000000     200.00000000     200.00000000     200.00000000     200.00000000     200.00000000     200.00000000     200.00000000     200.00000000     200.00000000     200.00000000     200.00000000     200.00000000     200.00000000     200.00000000     200.00000000     200.00000000     200.00000000     200.00000000     200.00000000     200.00000000     200.00000000     200.00000000     200.00000000     200.00000000     200.00000000     200.00000000     200.00000000     200.00000000     200.00000000     200.00000000     200.00000000     200.00000000     200.00000000     200.00000000     200.00000000     200.00000000     200.00000000     200.00000000     200.00000000     200.00000000     200.00000000     200.00000000     200.00000000     200.00000000     200.00000000     200.00000000     200.00000000     200.00000000     200.00000000     200.00000000     200.00000000     200.00000000     200.00000000     200.00000000     200.00000000     200.00000000     200.00000000     200.00000000     200.00000000     200.00000000     200.00000000     200.00000000     200.00000000     200.00000000
         200.00000000     200.00000000     200.00000000     200.00000000     200.00000000     200.00000000     200.00000000     200.00000000     200.00000000     200.00000000     200.00000000     200.00000000     200.00000000     200.00000000     200.00000000     200.00000000     200.00000000     200.00000000     200.00000000     200.00000000     200.00000000     200.00000000     200.00000000     200.00000000     200.00000000     200.00000000     200.00000000     200.00000000     200.00000000     200.00000000     200.00000000     200.00000000     200.00000000     200.00000000     200.00000000     200.00000000     200.00000000     200.00000000     200.00000000     200.00000000     200.00000000     200.00000000     200.00000000     200.00000000     200.00000000     200.00000000     200.00000000     200.00000000     200.00000000     200.00000000     200.00000000     200.00000000     200.00000000     200.00000000     200.00000000     200.00000000     200.00000000     200.00000000     200.00000000     200.00000000     200.00000000     200.00000000     200.00000000     200.00000000     200.00000000     200.00000000     200.00000000     200.00000000     200.00000000     200.00000000     200.00000000     200.00000000     200.00000000     200.00000000     200.00000000     200.00000000     200.00000000     200.00000000     200.00000000     200.00000000     200.00000000     200.00000000     200.00000000     200.00000000     200.00000000     200.00000000     200.00000000     200.00000000     200.00000000     200.00000000     200.00000000     200.00000000     200.00000000     200.00000000     200.00000000     200.00000000     200.00000000     200.00000000     200.00000000     200.00000000     200.00000000     200.00000000     200.00000000     200.00000000     200.00000000     200.00000000     200.00000000     200.00000000     200.00000000     200.00000000     200.00000000     200.00000000     200.00000000     200.00000000     200.00000000     200.00000000     200.00000000     200.00000000     200.00000000     200.00000000     200.00000000     200.00000000     200.00000000     200.00000000     200.00000000     200.00000000     200.00000000     200.00000000     200.00000000     200.00000000     200.00000000     200.00000000     200.00000000     200.00000000     200.00000000     200.00000000     200.00000000     200.00000000     200.00000000     200.00000000     200.00000000     200.00000000     200.00000000     200.00000000     200.00000000     200.00000000     200.00000000     200.00000000     200.00000000     200.00000000     200.00000000     200.00000000     200.00000000     200.00000000     200.00000000     200.00000000     200.00000000     200.00000000     200.00000000     200.00000000     200.00000000     200.00000000     200.00000000
         200.00000000     200.00000000     200.00000000     200.00000000     200.00000000     200.00000000     200.00000000     200.00000000     200.00000000     200.00000000     200.00000000     200.00000000     200.00000000     200.00000000     200.00000000     200.00000000     200.00000000     200.00000000     200.00000000     200.00000000     200.00000000     200.00000000     200.00000000     200.00000000     200.00000000     200.00000000     200.00000000     200.00000000     200.00000000     200.00000000     200.00000000     200.00000000     200.00000000     200.00000000     200.00000000     200.00000000     200.00000000     200.00000000     200.00000000     200.00000000     200.00000000     200.00000000     200.00000000     200.00000000     200.00000000     200.00000000     200.00000000     200.00000000     200.00000000     200.00000000     200.00000000     200.00000000     200.00000000     200.00000000     200.00000000     200.00000000     200.00000000     200.00000000     200.00000000     200.00000000     200.00000000     200.00000000     200.00000000     200.00000000     200.00000000     200.00000000     200.00000000     200.00000000     200.00000000     200.00000000     200.00000000     200.00000000     200.00000000     200.00000000     200.00000000     200.00000000     200.00000000     200.00000000     200.00000000     200.00000000     200.00000000     200.00000000     200.00000000     200.00000000     200.00000000     200.00000000     200.00000000     200.00000000     200.00000000     200.00000000     200.00000000     200.00000000     200.00000000     200.00000000     200.00000000     200.00000000     200.00000000     200.00000000     200.00000000     200.00000000     200.00000000     200.00000000     200.00000000     200.00000000     200.00000000     200.00000000     200.00000000     200.00000000     200.00000000     200.00000000     200.00000000     200.00000000     200.00000000     200.00000000     200.00000000     200.00000000     200.00000000     200.00000000     200.00000000     200.00000000     200.00000000     200.00000000     200.00000000     200.00000000     200.00000000     200.00000000     200.00000000     200.00000000     200.00000000     200.00000000     200.00000000     200.00000000     200.00000000     200.00000000     200.00000000     200.00000000     200.00000000     200.00000000     200.00000000     200.00000000     200.00000000     200.00000000     200.00000000     200.00000000     200.00000000     200.00000000     200.00000000     200.00000000     200.00000000     200.00000000     200.00000000     200.00000000     200.00000000     200.00000000     200.00000000     200.00000000     200.00000000     200.00000000     200.00000000     200.00000000     200.00000000     200.00000000     200.00000000
         200.00000000     200.00000000     200.00000000     200.00000000     200.00000000     200.00000000     200.00000000     200.00000000     200.00000000     200.00000000     200.00000000     200.00000000     200.00000000     200.00000000     200.00000000     200.00000000     200.00000000     200.00000000     200.00000000     200.00000000     200.00000000     200.00000000     200.00000000     200.00000000     200.00000000     200.00000000     200.00000000     200.00000000     200.00000000     200.00000000     200.00000000     200.00000000     200.00000000     200.00000000     200.00000000     200.00000000     200.00000000     200.00000000     200.00000000     200.00000000     200.00000000     200.00000000     200.00000000     200.00000000     200.00000000     200.00000000     200.00000000     200.00000000     200.00000000     200.00000000     200.00000000     200.00000000     200.00000000     200.00000000     200.00000000     200.00000000     200.00000000     200.00000000     200.00000000     200.00000000     200.00000000     200.00000000     200.00000000     200.00000000     200.00000000     200.00000000     200.00000000     200.00000000     200.00000000     200.00000000     200.00000000     200.00000000     200.00000000     200.00000000     200.00000000     200.00000000     200.00000000     200.00000000     200.00000000     200.00000000     200.00000000     200.00000000     200.00000000     200.00000000     200.00000000     200.00000000     200.00000000     200.00000000     200.00000000     200.00000000     200.00000000     200.00000000     200.00000000     200.00000000     200.00000000     200.00000000     200.00000000     200.00000000     200.00000000     200.00000000     200.00000000     200.00000000     200.00000000     200.00000000     200.00000000     200.00000000     200.00000000     200.00000000     200.00000000     200.00000000     200.00000000     200.00000000     200.00000000     200.00000000     200.00000000     200.00000000     200.00000000     200.00000000     200.00000000     200.00000000     200.00000000     200.00000000     200.00000000     200.00000000     200.00000000     200.00000000     200.00000000     200.00000000     200.00000000     200.00000000     200.00000000     200.00000000     200.00000000     200.00000000     200.00000000     200.00000000     200.00000000     200.00000000     200.00000000     200.00000000     200.00000000     200.00000000     200.00000000     200.00000000     200.00000000     200.00000000     200.00000000     200.00000000     200.00000000     200.00000000     200.00000000     200.00000000     200.00000000     200.00000000     200.00000000     200.00000000     200.00000000     200.00000000     200.00000000     200.00000000     200.00000000     200.00000000     200.00000000
         200.00000000     200.00000000     200.00000000     200.00000000     200.00000000     200.00000000     200.00000000     200.00000000     200.00000000     200.00000000     200.00000000     200.00000000     200.00000000     200.00000000     200.00000000     200.00000000     200.00000000     200.00000000     200.00000000     200.00000000     200.00000000     200.00000000     200.00000000     200.00000000     200.00000000     200.00000000     200.00000000     200.00000000     200.00000000     200.00000000     200.00000000     200.00000000     200.00000000     200.00000000     200.00000000     200.00000000     200.00000000     200.00000000     200.00000000     200.00000000     200.00000000     200.00000000     200.00000000     200.00000000     200.00000000     200.00000000     200.00000000     200.00000000     200.00000000     200.00000000     200.00000000     200.00000000     200.00000000     200.00000000     200.00000000     200.00000000     200.00000000     200.00000000     200.00000000     200.00000000     200.00000000     200.00000000     200.00000000     200.00000000     200.00000000     200.00000000     200.00000000     200.00000000     200.00000000     200.00000000     200.00000000     200.00000000     200.00000000     200.00000000     200.00000000     200.00000000     200.00000000     200.00000000     200.00000000     200.00000000     200.00000000     200.00000000     200.00000000     200.00000000     200.00000000     200.00000000     200.00000000     200.00000000     200.00000000     200.00000000     200.00000000     200.00000000     200.00000000     200.00000000     200.00000000     200.00000000     200.00000000     200.00000000     200.00000000     200.00000000     200.00000000     200.00000000     200.00000000     200.00000000     200.00000000     200.00000000     200.00000000     200.00000000     200.00000000     200.00000000     200.00000000     200.00000000     200.00000000     200.00000000     200.00000000     200.00000000     200.00000000     200.00000000     200.00000000     200.00000000     200.00000000     200.00000000     200.00000000     200.00000000     200.00000000     200.00000000     200.00000000     200.00000000     200.00000000     200.00000000     200.00000000     200.00000000     200.00000000     200.00000000     200.00000000     200.00000000     200.00000000     200.00000000     200.00000000     200.00000000     200.00000000     200.00000000     200.00000000     200.00000000     200.00000000     200.00000000     200.00000000     200.00000000     200.00000000     200.00000000     200.00000000     200.00000000     200.00000000     200.00000000     200.00000000     200.00000000     200.00000000     200.00000000     200.00000000     200.00000000     200.00000000     200.00000000     200.00000000
         200.00000000     200.00000000     200.00000000     200.00000000     200.00000000     200.00000000     200.00000000     200.00000000     200.00000000     200.00000000     200.00000000     200.00000000     200.00000000     200.00000000     200.00000000     200.00000000     200.00000000     200.00000000     200.00000000     200.00000000     200.00000000     200.00000000     200.00000000     200.00000000     200.00000000     200.00000000     200.00000000     200.00000000     200.00000000     200.00000000     200.00000000     200.00000000     200.00000000     200.00000000     200.00000000     200.00000000     200.00000000     200.00000000     200.00000000     200.00000000     200.00000000     200.00000000     200.00000000     200.00000000     200.00000000     200.00000000     200.00000000     200.00000000     200.00000000     200.00000000     200.00000000     200.00000000     200.00000000     200.00000000     200.00000000     200.00000000     200.00000000     200.00000000     200.00000000     200.00000000     200.00000000     200.00000000     200.00000000     200.00000000     200.00000000     200.00000000     200.00000000     200.00000000     200.00000000     200.00000000     200.00000000     200.00000000     200.00000000     200.00000000     200.00000000     200.00000000     200.00000000     200.00000000     200.00000000     200.00000000     200.00000000     200.00000000     200.00000000     200.00000000     200.00000000     200.00000000     200.00000000     200.00000000     200.00000000     200.00000000     200.00000000     200.00000000     200.00000000     200.00000000     200.00000000     200.00000000     200.00000000     200.00000000     200.00000000     200.00000000     200.00000000     200.00000000     200.00000000     200.00000000     200.00000000     200.00000000     200.00000000     200.00000000     200.00000000     200.00000000     200.00000000     200.00000000     200.00000000     200.00000000     200.00000000     200.00000000     200.00000000     200.00000000     200.00000000     200.00000000     200.00000000     200.00000000     200.00000000     200.00000000     200.00000000     200.00000000     200.00000000     200.00000000     200.00000000     200.00000000     200.00000000     200.00000000     200.00000000     200.00000000     200.00000000     200.00000000     200.00000000     200.00000000     200.00000000     200.00000000     200.00000000     200.00000000     200.00000000     200.00000000     200.00000000     200.00000000     200.00000000     200.00000000     200.00000000     200.00000000     200.00000000     200.00000000     200.00000000     200.00000000     200.00000000     200.00000000     200.00000000     200.00000000     200.00000000     200.00000000     200.00000000     200.00000000     200.00000000
         200.00000000     200.00000000     200.00000000     200.00000000     200.00000000     200.00000000     200.00000000     200.00000000     200.00000000     200.00000000     200.00000000     200.00000000     200.00000000     200.00000000     200.00000000     200.00000000     200.00000000     200.00000000     200.00000000     200.00000000     200.00000000     200.00000000     200.00000000     200.00000000     200.00000000     200.00000000     200.00000000     200.00000000     200.00000000     200.00000000     200.00000000     200.00000000     200.00000000     200.00000000     200.00000000     200.00000000     200.00000000     200.00000000     200.00000000     200.00000000     200.00000000     200.00000000     200.00000000     200.00000000     200.00000000     200.00000000     200.00000000     200.00000000     200.00000000     200.00000000     200.00000000     200.00000000     200.00000000     200.00000000     200.00000000     200.00000000     200.00000000     200.00000000     200.00000000     200.00000000     200.00000000     200.00000000     200.00000000     200.00000000     200.00000000     200.00000000     200.00000000     200.00000000     200.00000000     200.00000000     200.00000000     200.00000000     200.00000000     200.00000000     200.00000000     200.00000000     200.00000000     200.00000000     200.00000000     200.00000000     200.00000000     200.00000000     200.00000000     200.00000000     200.00000000     200.00000000     200.00000000     200.00000000     200.00000000     200.00000000     200.00000000     200.00000000     200.00000000     200.00000000     200.00000000     200.00000000     200.00000000     200.00000000     200.00000000     200.00000000     200.00000000     200.00000000     200.00000000     200.00000000     200.00000000     200.00000000     200.00000000     200.00000000     200.00000000     200.00000000     200.00000000     200.00000000     200.00000000     200.00000000     200.00000000     200.00000000     200.00000000     200.00000000     200.00000000     200.00000000     200.00000000     200.00000000     200.00000000     200.00000000     200.00000000     200.00000000     200.00000000     200.00000000     200.00000000     200.00000000     200.00000000     200.00000000     200.00000000     200.00000000     200.00000000     200.00000000     200.00000000     200.00000000     200.00000000     200.00000000     200.00000000     200.00000000     200.00000000     200.00000000     200.00000000     200.00000000     200.00000000     200.00000000     200.00000000     200.00000000     200.00000000     200.00000000     200.00000000     200.00000000     200.00000000     200.00000000     200.00000000     200.00000000     200.00000000     200.00000000     200.00000000     200.00000000     200.00000000
         200.00000000     200.00000000     200.00000000     200.00000000     200.00000000     200.00000000     200.00000000     200.00000000     200.00000000     200.00000000     200.00000000     200.00000000     200.00000000     200.00000000     200.00000000     200.00000000     200.00000000     200.00000000     200.00000000     200.00000000     200.00000000     200.00000000     200.00000000     200.00000000     200.00000000     200.00000000     200.00000000     200.00000000     200.00000000     200.00000000     200.00000000     200.00000000     200.00000000     200.00000000     200.00000000     200.00000000     200.00000000     200.00000000     200.00000000     200.00000000     200.00000000     200.00000000     200.00000000     200.00000000     200.00000000     200.00000000     200.00000000     200.00000000     200.00000000     200.00000000     200.00000000     200.00000000     200.00000000     200.00000000     200.00000000     200.00000000     200.00000000     200.00000000     200.00000000     200.00000000     200.00000000     200.00000000     200.00000000     200.00000000     200.00000000     200.00000000     200.00000000     200.00000000     200.00000000     200.00000000     200.00000000     200.00000000     200.00000000     200.00000000     200.00000000     200.00000000     200.00000000     200.00000000     200.00000000     200.00000000     200.00000000     200.00000000     200.00000000     200.00000000     200.00000000     200.00000000     200.00000000     200.00000000     200.00000000     200.00000000     200.00000000     200.00000000     200.00000000     200.00000000     200.00000000     200.00000000     200.00000000     200.00000000     200.00000000     200.00000000     200.00000000     200.00000000     200.00000000     200.00000000     200.00000000     200.00000000     200.00000000     200.00000000     200.00000000     200.00000000     200.00000000     200.00000000     200.00000000     200.00000000     200.00000000     200.00000000     200.00000000     200.00000000     200.00000000     200.00000000     200.00000000     200.00000000     200.00000000     200.00000000     200.00000000     200.00000000     200.00000000     200.00000000     200.00000000     200.00000000     200.00000000     200.00000000     200.00000000     200.00000000     200.00000000     200.00000000     200.00000000     200.00000000     200.00000000     200.00000000     200.00000000     200.00000000     200.00000000     200.00000000     200.00000000     200.00000000     200.00000000     200.00000000     200.00000000     200.00000000     200.00000000     200.00000000     200.00000000     200.00000000     200.00000000     200.00000000     200.00000000     200.00000000     200.00000000     200.00000000     200.00000000     200.00000000     200.00000000
         200.00000000     200.00000000     200.00000000     200.00000000     200.00000000     200.00000000     200.00000000     200.00000000     200.00000000     200.00000000     200.00000000     200.00000000     200.00000000     200.00000000     200.00000000     200.00000000     200.00000000     200.00000000     200.00000000     200.00000000     200.00000000     200.00000000     200.00000000     200.00000000     200.00000000     200.00000000     200.00000000     200.00000000     200.00000000     200.00000000     200.00000000     200.00000000     200.00000000     200.00000000     200.00000000     200.00000000     200.00000000     200.00000000     200.00000000     200.00000000     200.00000000     200.00000000     200.00000000     200.00000000     200.00000000     200.00000000     200.00000000     200.00000000     200.00000000     200.00000000     200.00000000     200.00000000     200.00000000     200.00000000     200.00000000     200.00000000     200.00000000     200.00000000     200.00000000     200.00000000     200.00000000     200.00000000     200.00000000     200.00000000     200.00000000     200.00000000     200.00000000     200.00000000     200.00000000     200.00000000     200.00000000     200.00000000     200.00000000     200.00000000     200.00000000     200.00000000     200.00000000     200.00000000     200.00000000     200.00000000     200.00000000     200.00000000     200.00000000     200.00000000     200.00000000     200.00000000     200.00000000     200.00000000     200.00000000     200.00000000     200.00000000     200.00000000     200.00000000     200.00000000     200.00000000     200.00000000     200.00000000     200.00000000     200.00000000     200.00000000     200.00000000     200.00000000     200.00000000     200.00000000     200.00000000     200.00000000     200.00000000     200.00000000     200.00000000     200.00000000     200.00000000     200.00000000     200.00000000     200.00000000     200.00000000     200.00000000     200.00000000     200.00000000     200.00000000     200.00000000     200.00000000     200.00000000     200.00000000     200.00000000     200.00000000     200.00000000     200.00000000     200.00000000     200.00000000     200.00000000     200.00000000     200.00000000     200.00000000     200.00000000     200.00000000     200.00000000     200.00000000     200.00000000     200.00000000     200.00000000     200.00000000     200.00000000     200.00000000     200.00000000     200.00000000     200.00000000     200.00000000     200.00000000     200.00000000     200.00000000     200.00000000     200.00000000     200.00000000     200.00000000     200.00000000     200.00000000     200.00000000     200.00000000     200.00000000     200.00000000     200.00000000     200.00000000     200.00000000