# File generated by Flopy version 3.3.5 on 05/09/2023 at 08:06:02.
BEGIN options
END options

