# File generated by Flopy version 3.3.5 on 05/09/2023 at 08:06:02.
BEGIN options
END options

BEGIN dimensions
  NPER  1
END dimensions

BEGIN perioddata
  1.00000000E+08  1       1.00000000
END perioddata

