# File generated by Flopy version 3.3.5 on 05/08/2023 at 17:18:57.
BEGIN options
  BUDGET  FILEOUT  incised.cbb
  HEAD  FILEOUT  incised.hds
END options

BEGIN period  1
  SAVE  head  all
  SAVE  budget  all
  PRINT  budget  all
END period  1

