# File generated by Flopy version 3.3.5 on 05/08/2023 at 17:18:45.
BEGIN options
END options

