# File generated by Flopy version 3.3.5 on 05/08/2023 at 17:18:45.
BEGIN options
END options

BEGIN timing
  TDIS6  incised.tdis
END timing

BEGIN models
  gwf6  incised.nam  incised
END models

BEGIN exchanges
END exchanges

BEGIN solutiongroup  1
  ims6  incised.ims  incised
END solutiongroup  1

